version 3
run V2VRandom-0-20251031-23:25:36-7271
attr configname V2VRandom
attr datetime 20251031-23:25:36
attr datetimef 20251031-232536
attr experiment V2VRandom
attr inifile omnetpp.ini
attr iterationvars ""
attr iterationvarsd ""
attr iterationvarsf ""
attr measurement ""
attr network V2VNetwork
attr processid 7271
attr repetition 0
attr replication #0
attr resultdir results
attr runnumber 0
attr seedset 0
config image-path ../../../../samples/inet4.5/images:../../../../samples/veins/images
config network V2VNetwork
config sim-time-limit 100s
config *.node[*].mobility.typename RandomWaypointMobility
config *.node[*].mobility.constraintAreaMinX 0m
config *.node[*].mobility.constraintAreaMaxX 2000m
config *.node[*].mobility.constraintAreaMinY 0m
config *.node[*].mobility.constraintAreaMaxY 2000m
config *.node[*].mobility.constraintAreaMinZ 0m
config *.node[*].mobility.constraintAreaMaxZ 0m
config *.node[0].mobility.initialX "uniform(0m, 500m)"
config *.node[0].mobility.initialY "uniform(0m, 500m)"
config *.node[1].mobility.initialX "uniform(1500m, 2000m)"
config *.node[1].mobility.initialY "uniform(0m, 500m)"
config *.node[2].mobility.initialX "uniform(0m, 500m)"
config *.node[2].mobility.initialY "uniform(1500m, 2000m)"
config *.node[3].mobility.initialX "uniform(1500m, 2000m)"
config *.node[3].mobility.initialY "uniform(1500m, 2000m)"
config *.node[4].mobility.initialX "uniform(400m, 600m)"
config *.node[4].mobility.initialY "uniform(400m, 600m)"
config *.node[5].mobility.initialX "uniform(1400m, 1600m)"
config *.node[5].mobility.initialY "uniform(400m, 600m)"
config *.node[6].mobility.initialX "uniform(900m, 1100m)"
config *.node[6].mobility.initialY "uniform(900m, 1100m)"
config *.node[7].mobility.initialX "uniform(200m, 400m)"
config *.node[7].mobility.initialY "uniform(1400m, 1600m)"
config *.node[8].mobility.initialX "uniform(1600m, 1800m)"
config *.node[8].mobility.initialY "uniform(1400m, 1600m)"
config *.node[9].mobility.initialX "uniform(900m, 1100m)"
config *.node[9].mobility.initialY "uniform(200m, 400m)"
config *.node[*].mobility.speed "uniform(10mps, 20mps)"
config *.node[*].mobility.waitTime "uniform(0.5s, 2s)"

par V2VNetwork.radioMedium.propagation typename "\"inet.physicallayer.wireless.common.propagation.ConstantSpeedPropagation\""
par V2VNetwork.radioMedium.propagation propagationSpeed 2.99792e+08mps
attr unit mps
par V2VNetwork.radioMedium.propagation ignoreMovementDuringTransmission true
par V2VNetwork.radioMedium.propagation ignoreMovementDuringPropagation true
par V2VNetwork.radioMedium.propagation ignoreMovementDuringReception true
scalar V2VNetwork.radioMedium.propagation "Arrival computation count" 234
par V2VNetwork.radioMedium.analogModel typename "\"inet.physicallayer.wireless.common.analogmodel.packetlevel.ScalarAnalogModel\""
par V2VNetwork.radioMedium.analogModel ignorePartialInterference false
par V2VNetwork.radioMedium.backgroundNoise typename "\"inet.physicallayer.wireless.common.backgroundnoise.IsotropicScalarBackgroundNoise\""
par V2VNetwork.radioMedium.backgroundNoise power -110dBm
attr unit dBm
par V2VNetwork.radioMedium.backgroundNoise bandwidth "nan Hz"
attr unit Hz
par V2VNetwork.radioMedium.pathLoss typename "\"inet.physicallayer.wireless.common.pathloss.FreeSpacePathLoss\""
par V2VNetwork.radioMedium.pathLoss alpha 2
par V2VNetwork.radioMedium.pathLoss systemLoss 0dB
attr unit dB
par V2VNetwork.radioMedium.mediumLimitCache typename "\"inet.physicallayer.wireless.common.medium.MediumLimitCache\""
par V2VNetwork.radioMedium.mediumLimitCache centerFrequency 2.4e+09Hz
attr unit Hz
par V2VNetwork.radioMedium.mediumLimitCache maxSpeed "nan mps"
attr unit mps
par V2VNetwork.radioMedium.mediumLimitCache maxTransmissionPower "nan W"
attr unit W
par V2VNetwork.radioMedium.mediumLimitCache minInterferencePower -110dBm
attr unit dBm
par V2VNetwork.radioMedium.mediumLimitCache minReceptionPower -85dBm
attr unit dBm
par V2VNetwork.radioMedium.mediumLimitCache maxAntennaGain 0dB
attr unit dB
par V2VNetwork.radioMedium.mediumLimitCache minInterferenceTime 1e-12s
attr unit s
par V2VNetwork.radioMedium.mediumLimitCache maxTransmissionDuration 0.01s
attr unit s
par V2VNetwork.radioMedium.mediumLimitCache maxCommunicationRange "nan m"
attr unit m
par V2VNetwork.radioMedium.mediumLimitCache maxInterferenceRange "nan m"
attr unit m
par V2VNetwork.radioMedium.communicationCache typename "\"inet.physicallayer.wireless.common.communicationcache.VectorCommunicationCache\""
par V2VNetwork.radioMedium typename "\"inet.physicallayer.wireless.ieee80211.packetlevel.Ieee80211ScalarRadioMedium\""
par V2VNetwork.radioMedium physicalEnvironmentModule "\"physicalEnvironment\""
par V2VNetwork.radioMedium signalAnalogRepresentation "\"scalar\""
attr enum unitDisk,scalar,dimensional
par V2VNetwork.radioMedium rangeFilter "\"\""
par V2VNetwork.radioMedium radioModeFilter false
par V2VNetwork.radioMedium listeningFilter false
par V2VNetwork.radioMedium macAddressFilter false
par V2VNetwork.radioMedium recordTransmissionLog false
par V2VNetwork.radioMedium recordReceptionLog false
scalar V2VNetwork.radioMedium "transmission count" 26
scalar V2VNetwork.radioMedium "signal send count" 234
scalar V2VNetwork.radioMedium "reception computation count" 234
scalar V2VNetwork.radioMedium "interference computation count" 732
scalar V2VNetwork.radioMedium "reception decision computation count" 72
scalar V2VNetwork.radioMedium "listening decision computation count" 428
scalar V2VNetwork.radioMedium "reception cache hit" 80.26981450253
attr unit %
scalar V2VNetwork.radioMedium "interference cache hit" 66.666666666667
attr unit %
scalar V2VNetwork.radioMedium "noise cache hit" 0
attr unit %
scalar V2VNetwork.radioMedium "snir cache hit" 50
attr unit %
scalar V2VNetwork.radioMedium "reception decision cache hit" 50
attr unit %
scalar V2VNetwork.radioMedium "reception result cache hit" 0
attr unit %
par V2VNetwork.node[0].radioIn[0].channel typename "\"ned.IdealChannel\""
par V2VNetwork.node[0].mobility typename "\"inet.mobility.single.RandomWaypointMobility\""
par V2VNetwork.node[0].mobility subjectModule "\"^\""
par V2VNetwork.node[0].mobility coordinateSystemModule "\"\""
par V2VNetwork.node[0].mobility displayStringTextFormat "\"p: %p\\nv: %v\""
attr mutable ""
par V2VNetwork.node[0].mobility updateDisplayString true
par V2VNetwork.node[0].mobility constraintAreaMinX 0m
attr unit m
par V2VNetwork.node[0].mobility constraintAreaMinY 0m
attr unit m
par V2VNetwork.node[0].mobility constraintAreaMinZ 0m
attr unit m
par V2VNetwork.node[0].mobility constraintAreaMaxX 2000m
attr unit m
par V2VNetwork.node[0].mobility constraintAreaMaxY 2000m
attr unit m
par V2VNetwork.node[0].mobility constraintAreaMaxZ 0m
attr unit m
par V2VNetwork.node[0].mobility updateInterval 0.1s
attr unit s
par V2VNetwork.node[0].mobility faceForward true
par V2VNetwork.node[0].mobility initialX 274.407m
attr unit m
par V2VNetwork.node[0].mobility initialY 296.422m
attr unit m
par V2VNetwork.node[0].mobility initialZ 0m
attr unit m
par V2VNetwork.node[0].mobility initFromDisplayString true
par V2VNetwork.node[0].mobility speed "uniform(10mps, 20mps)"
attr unit mps
par V2VNetwork.node[0].mobility waitTime "uniform(0.5s, 2s)"
attr unit s
par V2VNetwork.node[0].interfaceTable typename "\"inet.networklayer.common.InterfaceTable\""
par V2VNetwork.node[0].interfaceTable displayAddresses false
par V2VNetwork.node[0].cb typename "\"inet.common.MessageDispatcher\""
par V2VNetwork.node[0].cb displayStringTextFormat "\"processed %p pk (%l)\""
par V2VNetwork.node[0].cb forwardServiceRegistration true
par V2VNetwork.node[0].cb forwardProtocolRegistration true
par V2VNetwork.node[0].bl typename "\"inet.common.MessageDispatcher\""
par V2VNetwork.node[0].bl displayStringTextFormat "\"processed %p pk (%l)\""
par V2VNetwork.node[0].bl forwardServiceRegistration true
par V2VNetwork.node[0].bl forwardProtocolRegistration true
par V2VNetwork.node[0].li typename "\"inet.common.MessageDispatcher\""
par V2VNetwork.node[0].li displayStringTextFormat "\"processed %p pk (%l)\""
par V2VNetwork.node[0].li forwardServiceRegistration true
par V2VNetwork.node[0].li forwardProtocolRegistration true
par V2VNetwork.node[0].lo[0].upperLayerIn.channel typename "\"ned.IdealChannel\""
par V2VNetwork.node[0].lo[0].lo.upperLayerOut.channel typename "\"ned.IdealChannel\""
par V2VNetwork.node[0].lo[0].lo typename "\"inet.linklayer.loopback.Loopback\""
par V2VNetwork.node[0].lo[0].lo interfaceTableModule "\"V2VNetwork.node[0].interfaceTable\""
par V2VNetwork.node[0].lo[0].lo mtu 4470B
attr unit B
scalar V2VNetwork.node[0].lo[0].lo rcvdPkFromHl:count 0
attr interpolationmode none
attr recordingmode count
attr source packetReceivedFromUpper
attr title "packets received from higher layer, count"
scalar V2VNetwork.node[0].lo[0].lo rcvdPkFromHl:sum(packetBytes) 0
attr interpolationmode none
attr recordingmode sum(packetBytes)
attr source packetReceivedFromUpper
attr title "packets received from higher layer, sum(packetBytes)"
scalar V2VNetwork.node[0].lo[0].lo passedUpPk:count 0
attr interpolationmode none
attr recordingmode count
attr source packetSentToUpper
attr title "packets passed to higher layer, count"
scalar V2VNetwork.node[0].lo[0].lo passedUpPk:sum(packetBytes) 0
attr interpolationmode none
attr recordingmode sum(packetBytes)
attr source packetSentToUpper
attr title "packets passed to higher layer, sum(packetBytes)"
par V2VNetwork.node[0].lo[0] typename "\"inet.linklayer.loopback.LoopbackInterface\""
par V2VNetwork.node[0].lo[0] displayStringTextFormat "\"%a (%i)\\n%m\""
par V2VNetwork.node[0].lo[0] recordPcap false
par V2VNetwork.node[0].lo[0] numPcapRecorders 0
par V2VNetwork.node[0].lo[0] interfaceTableModule "\"V2VNetwork.node[0].interfaceTable\""
scalar V2VNetwork.node[0].lo[0] packetDropInterfaceDown:count 0
attr interpolationmode none
attr recordingmode count
attr source packetDropReasonIsInterfaceDown(packetDropped)
attr title "packet drops: interface down, count"
scalar V2VNetwork.node[0].lo[0] packetDropInterfaceDown:sum(packetBytes) 0
attr interpolationmode none
attr recordingmode sum(packetBytes)
attr source packetDropReasonIsInterfaceDown(packetDropped)
attr title "packet drops: interface down, sum(packetBytes)"
scalar V2VNetwork.node[0].lo[0] packetDropNoCarrier:count 0
attr interpolationmode none
attr recordingmode count
attr source packetDropReasonIsNoCarrier(packetDropped)
attr title "packet drops: no carrier, count"
scalar V2VNetwork.node[0].lo[0] packetDropNoCarrier:sum(packetBytes) 0
attr interpolationmode none
attr recordingmode sum(packetBytes)
attr source packetDropReasonIsNoCarrier(packetDropped)
attr title "packet drops: no carrier, sum(packetBytes)"
par V2VNetwork.node[0].wlan[0].radioIn.channel typename "\"ned.IdealChannel\""
par V2VNetwork.node[0].wlan[0].llc.upperLayerOut.channel typename "\"ned.IdealChannel\""
par V2VNetwork.node[0].wlan[0].upperLayerIn.channel typename "\"ned.IdealChannel\""
par V2VNetwork.node[0].wlan[0].mib typename "\"inet.linklayer.ieee80211.mib.Ieee80211Mib\""
par V2VNetwork.node[0].wlan[0].llc typename "\"inet.linklayer.ieee80211.llc.Ieee80211LlcLpd\""
par V2VNetwork.node[0].wlan[0].llc registerProtocol false
par V2VNetwork.node[0].wlan[0].agent typename "\"inet.linklayer.ieee80211.mgmt.Ieee80211AgentSta\""
par V2VNetwork.node[0].wlan[0].agent interfaceTableModule "\"V2VNetwork.node[0].interfaceTable\""
par V2VNetwork.node[0].wlan[0].agent mibModule "\"V2VNetwork.node[0].wlan[0].mib\""
par V2VNetwork.node[0].wlan[0].agent activeScan true
par V2VNetwork.node[0].wlan[0].agent channelsToScan "\"\""
par V2VNetwork.node[0].wlan[0].agent probeDelay 0.1s
attr unit s
par V2VNetwork.node[0].wlan[0].agent minChannelTime 0.15s
attr unit s
par V2VNetwork.node[0].wlan[0].agent maxChannelTime 0.3s
attr unit s
par V2VNetwork.node[0].wlan[0].agent authenticationTimeout 5s
attr unit s
par V2VNetwork.node[0].wlan[0].agent associationTimeout 5s
attr unit s
par V2VNetwork.node[0].wlan[0].agent startingTime -1s
attr unit s
par V2VNetwork.node[0].wlan[0].agent defaultSsid "\"SSID\""
scalar V2VNetwork.node[0].wlan[0].agent dropConfirm:count 2
attr recordingmode count
attr title "dropped confirms, count"
scalar V2VNetwork.node[0].wlan[0].agent acceptConfirm:count 0
attr recordingmode count
attr title "accepted confirms, count"
scalar V2VNetwork.node[0].wlan[0].agent sentRequest:count 3
attr recordingmode count
attr title "sent requests, count"
par V2VNetwork.node[0].wlan[0].mgmt typename "\"inet.linklayer.ieee80211.mgmt.Ieee80211MgmtSta\""
par V2VNetwork.node[0].wlan[0].mgmt interfaceTableModule "\"V2VNetwork.node[0].interfaceTable\""
par V2VNetwork.node[0].wlan[0].mgmt numChannels 1
par V2VNetwork.node[0].wlan[0].mgmt mibModule "\"V2VNetwork.node[0].wlan[0].mib\""
par V2VNetwork.node[0].wlan[0].mgmt macModule "\"V2VNetwork.node[0].wlan[0].mac\""
par V2VNetwork.node[0].wlan[0].mac.dcf.channelAccess.pendingQueue typename "\"inet.linklayer.ieee80211.mac.queue.PendingQueue\""
par V2VNetwork.node[0].wlan[0].mac.dcf.channelAccess.pendingQueue displayStringTextFormat "\"contains %p pk (%l) pushed %u\\npulled %o removed %r dropped %d\""
par V2VNetwork.node[0].wlan[0].mac.dcf.channelAccess.pendingQueue packetCapacity 100
par V2VNetwork.node[0].wlan[0].mac.dcf.channelAccess.pendingQueue dataCapacity -1b
attr unit b
par V2VNetwork.node[0].wlan[0].mac.dcf.channelAccess.pendingQueue dropperClass "\"inet::queueing::PacketAtCollectionEndDropper\""
par V2VNetwork.node[0].wlan[0].mac.dcf.channelAccess.pendingQueue comparatorClass "\"inet::ieee80211::MgmtOverDataComparator\""
par V2VNetwork.node[0].wlan[0].mac.dcf.channelAccess.pendingQueue bufferModule "\"\""
scalar V2VNetwork.node[0].wlan[0].mac.dcf.channelAccess.pendingQueue queueLength:last 0
attr autoWarmupFilter false
attr interpolationmode sample-hold
attr recordingmode last
attr source "warmup(atomic(constant0(packetPushEnded) + count(packetPushStarted) - count(packetPulled) - count(packetRemoved) - count(packetDropped)))"
attr title "queue length, last"
attr unit pk
scalar V2VNetwork.node[0].wlan[0].mac.dcf.channelAccess.pendingQueue queueLength:max 1
attr autoWarmupFilter false
attr interpolationmode sample-hold
attr recordingmode max
attr source "warmup(atomic(constant0(packetPushEnded) + count(packetPushStarted) - count(packetPulled) - count(packetRemoved) - count(packetDropped)))"
attr title "queue length, max"
attr unit pk
scalar V2VNetwork.node[0].wlan[0].mac.dcf.channelAccess.pendingQueue queueLength:timeavg 0
attr autoWarmupFilter false
attr interpolationmode sample-hold
attr recordingmode timeavg
attr source "warmup(atomic(constant0(packetPushEnded) + count(packetPushStarted) - count(packetPulled) - count(packetRemoved) - count(packetDropped)))"
attr title "queue length, timeavg"
attr unit pk
scalar V2VNetwork.node[0].wlan[0].mac.dcf.channelAccess.pendingQueue queueBitLength:last 0
attr autoWarmupFilter false
attr interpolationmode sample-hold
attr recordingmode last
attr source "warmup(atomic(constant0(packetPushEnded) + sum(packetLength(packetPushStarted)) - sum(packetLength(packetPulled)) - sum(packetLength(packetRemoved)) - sum(packetLength(packetDropped))))"
attr title "queue bit length, last"
attr unit b
scalar V2VNetwork.node[0].wlan[0].mac.dcf.channelAccess.pendingQueue queueBitLength:max 256
attr autoWarmupFilter false
attr interpolationmode sample-hold
attr recordingmode max
attr source "warmup(atomic(constant0(packetPushEnded) + sum(packetLength(packetPushStarted)) - sum(packetLength(packetPulled)) - sum(packetLength(packetRemoved)) - sum(packetLength(packetDropped))))"
attr title "queue bit length, max"
attr unit b
scalar V2VNetwork.node[0].wlan[0].mac.dcf.channelAccess.pendingQueue queueBitLength:timeavg 0
attr autoWarmupFilter false
attr interpolationmode sample-hold
attr recordingmode timeavg
attr source "warmup(atomic(constant0(packetPushEnded) + sum(packetLength(packetPushStarted)) - sum(packetLength(packetPulled)) - sum(packetLength(packetRemoved)) - sum(packetLength(packetDropped))))"
attr title "queue bit length, timeavg"
attr unit b
statistic V2VNetwork.node[0].wlan[0].mac.dcf.channelAccess.pendingQueue queueingTime:histogram
field count 3
field mean 0
field stddev 0
field min 0
field max 0
field sum 0
field sqrsum 0
attr interpolationmode none
attr recordingmode histogram
attr source queueingTime(packetPulled)
attr title "queueing times"
attr unit s
bin	-inf	0
bin	-0.5	0
bin	-0.48	0
bin	-0.46	0
bin	-0.44	0
bin	-0.42	0
bin	-0.4	0
bin	-0.38	0
bin	-0.36	0
bin	-0.34	0
bin	-0.32	0
bin	-0.3	0
bin	-0.28	0
bin	-0.26	0
bin	-0.24	0
bin	-0.22	0
bin	-0.2	0
bin	-0.18	0
bin	-0.16	0
bin	-0.14	0
bin	-0.12	0
bin	-0.1	0
bin	-0.08	0
bin	-0.06	0
bin	-0.04	0
bin	-0.02	0
bin	0	3
bin	0.02	0
bin	0.04	0
bin	0.06	0
bin	0.08	0
bin	0.1	0
bin	0.12	0
bin	0.14	0
bin	0.16	0
bin	0.18	0
bin	0.2	0
bin	0.22	0
bin	0.24	0
bin	0.26	0
bin	0.28	0
bin	0.3	0
bin	0.32	0
bin	0.34	0
bin	0.36	0
bin	0.38	0
bin	0.4	0
bin	0.42	0
bin	0.44	0
bin	0.46	0
bin	0.48	0
bin	0.5	0
scalar V2VNetwork.node[0].wlan[0].mac.dcf.channelAccess.pendingQueue outgoingPackets:count 3
attr recordingmode count
attr source packetPulled
attr title "outgoing packets, count"
attr unit pk
scalar V2VNetwork.node[0].wlan[0].mac.dcf.channelAccess.pendingQueue outgoingPacketLengths:sum 768
attr interpolationmode none
attr recordingmode sum
attr source packetLength(packetPulled)
attr title "outgoing packet lengths, sum"
attr unit b
statistic V2VNetwork.node[0].wlan[0].mac.dcf.channelAccess.pendingQueue outgoingPacketLengths:histogram
field count 3
field mean 256
field stddev 0
field min 256
field max 256
field sum 768
field sqrsum 196608
attr interpolationmode none
attr recordingmode histogram
attr source packetLength(packetPulled)
attr title "outgoing packet lengths"
attr unit b
bin	-inf	0
bin	255	0
bin	256	3
bin	257	0
statistic V2VNetwork.node[0].wlan[0].mac.dcf.channelAccess.pendingQueue flowQueueingTime:histogram
field count 0
field mean -nan
field stddev nan
field min nan
field max nan
field sum 0
field sqrsum 0
attr interpolationmode none
attr recordingmode histogram
attr source queueingTime(demuxFlow(packetPulled))
attr title "flow queueing times"
attr unit s
bin	-inf	0
bin	0	0
bin	1	0
scalar V2VNetwork.node[0].wlan[0].mac.dcf.channelAccess.pendingQueue incomingPackets:count 3
attr recordingmode count
attr source packetPushStarted
attr title "incoming packets, count"
attr unit pk
scalar V2VNetwork.node[0].wlan[0].mac.dcf.channelAccess.pendingQueue incomingPacketLengths:sum 768
attr interpolationmode none
attr recordingmode sum
attr source packetLength(packetPushStarted)
attr title "incoming packet lengths, sum"
attr unit b
statistic V2VNetwork.node[0].wlan[0].mac.dcf.channelAccess.pendingQueue incomingPacketLengths:histogram
field count 3
field mean 256
field stddev 0
field min 256
field max 256
field sum 768
field sqrsum 196608
attr interpolationmode none
attr recordingmode histogram
attr source packetLength(packetPushStarted)
attr title "incoming packet lengths"
attr unit b
bin	-inf	0
bin	255	0
bin	256	3
bin	257	0
scalar V2VNetwork.node[0].wlan[0].mac.dcf.channelAccess.pendingQueue droppedPacketsQueueOverflow:count 0
attr interpolationmode none
attr recordingmode count
attr source packetDropReasonIsQueueOverflow(packetDropped)
attr title "dropped packets: queue overflow, count"
attr unit pk
scalar V2VNetwork.node[0].wlan[0].mac.dcf.channelAccess.pendingQueue droppedPacketLengthsQueueOverflow:sum 0
attr interpolationmode none
attr recordingmode sum
attr source packetLength(packetDropReasonIsQueueOverflow(packetDropped))
attr title "dropped packet lengths: queue overflow, sum"
attr unit b
par V2VNetwork.node[0].wlan[0].mac.dcf.channelAccess.inProgressFrames typename "\"inet.linklayer.ieee80211.mac.queue.InProgressFrames\""
par V2VNetwork.node[0].wlan[0].mac.dcf.channelAccess.inProgressFrames pendingQueueModule "\"^.pendingQueue\""
par V2VNetwork.node[0].wlan[0].mac.dcf.channelAccess.inProgressFrames originatorMacDataServiceModule "\"^.^.originatorMacDataService\""
par V2VNetwork.node[0].wlan[0].mac.dcf.channelAccess.inProgressFrames ackHandlerModule "\"^.^.ackHandler\""
statistic V2VNetwork.node[0].wlan[0].mac.dcf.channelAccess.inProgressFrames queueingTime:histogram
field count 3
field mean 3.8e-05
field stddev 0
field min 3.8e-05
field max 3.8e-05
field sum 0.000114
field sqrsum 4.332e-09
attr interpolationmode none
attr recordingmode histogram
attr source queueingTime(packetDequeued)
attr title "queueing times"
bin	-inf	0
bin	0	3
bin	0.01	0
bin	0.02	0
bin	0.03	0
bin	0.04	0
bin	0.05	0
bin	0.06	0
bin	0.07	0
bin	0.08	0
bin	0.09	0
bin	0.1	0
bin	0.11	0
bin	0.12	0
bin	0.13	0
bin	0.14	0
bin	0.15	0
bin	0.16	0
bin	0.17	0
bin	0.18	0
bin	0.19	0
bin	0.2	0
bin	0.21	0
bin	0.22	0
bin	0.23	0
bin	0.24	0
bin	0.25	0
bin	0.26	0
bin	0.27	0
bin	0.28	0
bin	0.29	0
bin	0.3	0
bin	0.31	0
bin	0.32	0
bin	0.33	0
bin	0.34	0
bin	0.35	0
bin	0.36	0
bin	0.37	0
bin	0.38	0
bin	0.39	0
bin	0.4	0
bin	0.41	0
bin	0.42	0
bin	0.43	0
bin	0.44	0
bin	0.45	0
bin	0.46	0
bin	0.47	0
bin	0.48	0
bin	0.49	0
bin	0.5	0
bin	0.51	0
scalar V2VNetwork.node[0].wlan[0].mac.dcf.channelAccess.inProgressFrames queueLength:max 1
attr autoWarmupFilter false
attr interpolationmode sample-hold
attr recordingmode max
attr source "warmup(count(packetEnqueued) - count(packetDequeued))"
attr title "queue length, max"
scalar V2VNetwork.node[0].wlan[0].mac.dcf.channelAccess.inProgressFrames queueLength:timeavg 0.00010057814549569
attr autoWarmupFilter false
attr interpolationmode sample-hold
attr recordingmode timeavg
attr source "warmup(count(packetEnqueued) - count(packetDequeued))"
attr title "queue length, timeavg"
par V2VNetwork.node[0].wlan[0].mac.dcf.channelAccess.contention typename "\"inet.linklayer.ieee80211.mac.contention.Contention\""
par V2VNetwork.node[0].wlan[0].mac.dcf.channelAccess.contention initialChannelBusy true
par V2VNetwork.node[0].wlan[0].mac.dcf.channelAccess.contention backoffOptimization true
scalar V2VNetwork.node[0].wlan[0].mac.dcf.channelAccess.contention channelAccessGranted:count 3
attr recordingmode count
attr title "channel access granted, count"
scalar V2VNetwork.node[0].wlan[0].mac.dcf.channelAccess.contention stateChanged:count 50
attr enum IDLE,DEFER,IFS_AND_BACKOFF
attr interpolationmode none
attr recordingmode count
attr title "contention state changed, count"
attr type enum
par V2VNetwork.node[0].wlan[0].mac.dcf.channelAccess typename "\"inet.linklayer.ieee80211.mac.channelaccess.Dcaf\""
par V2VNetwork.node[0].wlan[0].mac.dcf.channelAccess difsn -1
par V2VNetwork.node[0].wlan[0].mac.dcf.channelAccess cwMin -1
par V2VNetwork.node[0].wlan[0].mac.dcf.channelAccess cwMax -1
par V2VNetwork.node[0].wlan[0].mac.dcf.channelAccess rxModule "\"^.^.rx\""
scalar V2VNetwork.node[0].wlan[0].mac.dcf.channelAccess channelOwnershipChanged:count 6
attr interpolationmode sample-hold
attr recordingmode count
attr title "channel ownership, count"
par V2VNetwork.node[0].wlan[0].mac.dcf.originatorMacDataService.fragmentationPolicy typename "\"inet.linklayer.ieee80211.mac.fragmentation.BasicFragmentationPolicy\""
par V2VNetwork.node[0].wlan[0].mac.dcf.originatorMacDataService.fragmentationPolicy fragmentationThreshold 1500B
attr unit B
par V2VNetwork.node[0].wlan[0].mac.dcf.originatorMacDataService typename "\"inet.linklayer.ieee80211.mac.originator.OriginatorMacDataService\""
scalar V2VNetwork.node[0].wlan[0].mac.dcf.originatorMacDataService packetAggregated:count 0
attr recordingmode count
attr title "packets aggregated, count"
scalar V2VNetwork.node[0].wlan[0].mac.dcf.originatorMacDataService packetFragmented:count 0
attr recordingmode count
attr title "packets fragmented, count"
par V2VNetwork.node[0].wlan[0].mac.dcf.recipientMacDataService typename "\"inet.linklayer.ieee80211.mac.recipient.RecipientMacDataService\""
scalar V2VNetwork.node[0].wlan[0].mac.dcf.recipientMacDataService packetDeaggregated:count 0
attr recordingmode count
attr title "packets deaggregated, count"
scalar V2VNetwork.node[0].wlan[0].mac.dcf.recipientMacDataService packetDefragmented:count 6
attr recordingmode count
attr title "packets defragmented, count"
scalar V2VNetwork.node[0].wlan[0].mac.dcf.recipientMacDataService packetDropDuplicateDetected:count 0
attr interpolationmode none
attr recordingmode count
attr source packetDropReasonIsDuplicateDetected(packetDropped)
attr title "packet drops: duplicate detected, count"
scalar V2VNetwork.node[0].wlan[0].mac.dcf.recipientMacDataService packetDropDuplicateDetected:sum(packetBytes) 0
attr interpolationmode none
attr recordingmode sum(packetBytes)
attr source packetDropReasonIsDuplicateDetected(packetDropped)
attr title "packet drops: duplicate detected, sum(packetBytes)"
par V2VNetwork.node[0].wlan[0].mac.dcf.rateSelection typename "\"inet.linklayer.ieee80211.mac.rateselection.RateSelection\""
par V2VNetwork.node[0].wlan[0].mac.dcf.rateSelection rateControlModule "\"^.rateControl\""
par V2VNetwork.node[0].wlan[0].mac.dcf.rateSelection multicastFrameBitrate -1bps
attr unit bps
par V2VNetwork.node[0].wlan[0].mac.dcf.rateSelection responseAckFrameBitrate -1bps
attr unit bps
par V2VNetwork.node[0].wlan[0].mac.dcf.rateSelection responseCtsFrameBitrate -1bps
attr unit bps
par V2VNetwork.node[0].wlan[0].mac.dcf.rateSelection dataFrameBitrate -1bps
attr unit bps
par V2VNetwork.node[0].wlan[0].mac.dcf.rateSelection dataFrameBandwidth "nan Hz"
attr unit Hz
par V2VNetwork.node[0].wlan[0].mac.dcf.rateSelection dataFrameNumSpatialStreams -1
par V2VNetwork.node[0].wlan[0].mac.dcf.rateSelection mgmtFrameBitrate -1bps
attr unit bps
par V2VNetwork.node[0].wlan[0].mac.dcf.rateSelection controlFrameBitrate -1bps
attr unit bps
par V2VNetwork.node[0].wlan[0].mac.dcf.recoveryProcedure typename "\"inet.linklayer.ieee80211.mac.originator.NonQosRecoveryProcedure\""
par V2VNetwork.node[0].wlan[0].mac.dcf.recoveryProcedure cwCalculatorModule "\"^.channelAccess\""
par V2VNetwork.node[0].wlan[0].mac.dcf.recoveryProcedure rtsPolicyModule "\"^.rtsPolicy\""
par V2VNetwork.node[0].wlan[0].mac.dcf.recoveryProcedure shortRetryLimit 7
par V2VNetwork.node[0].wlan[0].mac.dcf.recoveryProcedure longRetryLimit 4
scalar V2VNetwork.node[0].wlan[0].mac.dcf.recoveryProcedure retryLimitReached:count 0
attr recordingmode count
attr title "retry limit reached, count"
par V2VNetwork.node[0].wlan[0].mac.dcf.originatorProtectionMechanism typename "\"inet.linklayer.ieee80211.mac.protectionmechanism.OriginatorProtectionMechanism\""
par V2VNetwork.node[0].wlan[0].mac.dcf.originatorProtectionMechanism rateSelectionModule "\"^.rateSelection\""
par V2VNetwork.node[0].wlan[0].mac.dcf.ackHandler typename "\"inet.linklayer.ieee80211.mac.originator.AckHandler\""
par V2VNetwork.node[0].wlan[0].mac.dcf.originatorAckPolicy typename "\"inet.linklayer.ieee80211.mac.originator.OriginatorAckPolicy\""
par V2VNetwork.node[0].wlan[0].mac.dcf.originatorAckPolicy rateSelectionModule "\"^.rateSelection\""
par V2VNetwork.node[0].wlan[0].mac.dcf.originatorAckPolicy ackTimeout -1s
attr unit s
par V2VNetwork.node[0].wlan[0].mac.dcf.recipientAckPolicy typename "\"inet.linklayer.ieee80211.mac.recipient.RecipientAckPolicy\""
par V2VNetwork.node[0].wlan[0].mac.dcf.recipientAckPolicy rateSelectionModule "\"^.rateSelection\""
par V2VNetwork.node[0].wlan[0].mac.dcf.rtsPolicy typename "\"inet.linklayer.ieee80211.mac.originator.RtsPolicy\""
par V2VNetwork.node[0].wlan[0].mac.dcf.rtsPolicy rateSelectionModule "\"^.rateSelection\""
par V2VNetwork.node[0].wlan[0].mac.dcf.rtsPolicy ctsTimeout -1s
attr unit s
par V2VNetwork.node[0].wlan[0].mac.dcf.rtsPolicy rtsThreshold 2346B
attr unit B
par V2VNetwork.node[0].wlan[0].mac.dcf.ctsPolicy typename "\"inet.linklayer.ieee80211.mac.recipient.CtsPolicy\""
par V2VNetwork.node[0].wlan[0].mac.dcf.ctsPolicy rxModule "\"^.^.rx\""
par V2VNetwork.node[0].wlan[0].mac.dcf.ctsPolicy rateSelectionModule "\"^.rateSelection\""
par V2VNetwork.node[0].wlan[0].mac.dcf typename "\"inet.linklayer.ieee80211.mac.coordinationfunction.Dcf\""
par V2VNetwork.node[0].wlan[0].mac.dcf rxModule "\"^.rx\""
par V2VNetwork.node[0].wlan[0].mac.dcf txModule "\"^.tx\""
scalar V2VNetwork.node[0].wlan[0].mac.dcf frameSequenceFinished:count 3
attr recordingmode count
attr title "finished frame sequences, count"
statistic V2VNetwork.node[0].wlan[0].mac.dcf frameSequenceDuration:histogram
field count 3
field mean 3.8e-05
field stddev 0
field min 3.8e-05
field max 3.8e-05
field sum 0.000114
field sqrsum 4.332e-09
attr recordingmode histogram
attr source frameSequenceDuration(frameSequenceFinished)
attr title "frame sequence durations"
bin	-inf	0
bin	0	3
bin	0.01	0
bin	0.02	0
bin	0.03	0
bin	0.04	0
bin	0.05	0
bin	0.06	0
bin	0.07	0
bin	0.08	0
bin	0.09	0
bin	0.1	0
bin	0.11	0
bin	0.12	0
bin	0.13	0
bin	0.14	0
bin	0.15	0
bin	0.16	0
bin	0.17	0
bin	0.18	0
bin	0.19	0
bin	0.2	0
bin	0.21	0
bin	0.22	0
bin	0.23	0
bin	0.24	0
bin	0.25	0
bin	0.26	0
bin	0.27	0
bin	0.28	0
bin	0.29	0
bin	0.3	0
bin	0.31	0
bin	0.32	0
bin	0.33	0
bin	0.34	0
bin	0.35	0
bin	0.36	0
bin	0.37	0
bin	0.38	0
bin	0.39	0
bin	0.4	0
bin	0.41	0
bin	0.42	0
bin	0.43	0
bin	0.44	0
bin	0.45	0
bin	0.46	0
bin	0.47	0
bin	0.48	0
bin	0.49	0
bin	0.5	0
bin	0.51	0
statistic V2VNetwork.node[0].wlan[0].mac.dcf frameSequenceNumPackets:histogram
field count 3
field mean 1
field stddev 0
field min 1
field max 1
field sum 3
field sqrsum 3
attr recordingmode histogram
attr source frameSequenceNumPackets(frameSequenceFinished)
attr title "frame sequences: number of packets"
bin	-inf	0
bin	0	0
bin	1	3
bin	2	0
scalar V2VNetwork.node[0].wlan[0].mac.dcf packetReceivedFromPeer:count 6
attr interpolationmode none
attr recordingmode count
attr title "packets received, count"
scalar V2VNetwork.node[0].wlan[0].mac.dcf packetReceivedFromPeer:sum(packetBytes) 192
attr interpolationmode none
attr recordingmode sum(packetBytes)
attr title "packets received, sum(packetBytes)"
scalar V2VNetwork.node[0].wlan[0].mac.dcf packetReceivedFromPeerUnicast:count 0
attr interpolationmode none
attr recordingmode count
attr source ieee80211Unicast(packetReceivedFromPeer)
attr title "packets received: unicast, count"
scalar V2VNetwork.node[0].wlan[0].mac.dcf packetReceivedFromPeerUnicast:sum(packetBytes) 0
attr interpolationmode none
attr recordingmode sum(packetBytes)
attr source ieee80211Unicast(packetReceivedFromPeer)
attr title "packets received: unicast, sum(packetBytes)"
scalar V2VNetwork.node[0].wlan[0].mac.dcf packetReceivedFromPeerMulticast:count 6
attr interpolationmode none
attr recordingmode count
attr source ieee80211Multicast(packetReceivedFromPeer)
attr title "packets received: multicast, count"
scalar V2VNetwork.node[0].wlan[0].mac.dcf packetReceivedFromPeerMulticast:sum(packetBytes) 192
attr interpolationmode none
attr recordingmode sum(packetBytes)
attr source ieee80211Multicast(packetReceivedFromPeer)
attr title "packets received: multicast, sum(packetBytes)"
scalar V2VNetwork.node[0].wlan[0].mac.dcf packetReceivedFromPeerBroadcast:count 6
attr interpolationmode none
attr recordingmode count
attr source ieee80211Broadcast(packetReceivedFromPeer)
attr title "packets received: broadcast, count"
scalar V2VNetwork.node[0].wlan[0].mac.dcf packetReceivedFromPeerBroadcast:sum(packetBytes) 192
attr interpolationmode none
attr recordingmode sum(packetBytes)
attr source ieee80211Broadcast(packetReceivedFromPeer)
attr title "packets received: broadcast, sum(packetBytes)"
scalar V2VNetwork.node[0].wlan[0].mac.dcf packetReceivedFromPeerWithRetry:count 0
attr interpolationmode none
attr recordingmode count
attr source ieee80211Retry(packetReceivedFromPeer)
attr title "packets received: with retry, count"
scalar V2VNetwork.node[0].wlan[0].mac.dcf packetReceivedFromPeerWithRetry:sum(packetBytes) 0
attr interpolationmode none
attr recordingmode sum(packetBytes)
attr source ieee80211Retry(packetReceivedFromPeer)
attr title "packets received: with retry, sum(packetBytes)"
scalar V2VNetwork.node[0].wlan[0].mac.dcf packetReceivedFromPeerWithoutRetry:count 6
attr interpolationmode none
attr recordingmode count
attr source ieee80211NotRetry(packetReceivedFromPeer)
attr title "packets received: without retry, count"
scalar V2VNetwork.node[0].wlan[0].mac.dcf packetReceivedFromPeerWithoutRetry:sum(packetBytes) 192
attr interpolationmode none
attr recordingmode sum(packetBytes)
attr source ieee80211NotRetry(packetReceivedFromPeer)
attr title "packets received: without retry, sum(packetBytes)"
scalar V2VNetwork.node[0].wlan[0].mac.dcf packetSentToPeer:count 3
attr interpolationmode none
attr recordingmode count
attr title "packets sent, count"
scalar V2VNetwork.node[0].wlan[0].mac.dcf packetSentToPeer:sum(packetBytes) 96
attr interpolationmode none
attr recordingmode sum(packetBytes)
attr title "packets sent, sum(packetBytes)"
scalar V2VNetwork.node[0].wlan[0].mac.dcf packetSentToPeerUnicast:count 0
attr interpolationmode none
attr recordingmode count
attr source ieee80211Unicast(packetSentToPeer)
attr title "packets sent: unicast, count"
scalar V2VNetwork.node[0].wlan[0].mac.dcf packetSentToPeerUnicast:sum(packetBytes) 0
attr interpolationmode none
attr recordingmode sum(packetBytes)
attr source ieee80211Unicast(packetSentToPeer)
attr title "packets sent: unicast, sum(packetBytes)"
scalar V2VNetwork.node[0].wlan[0].mac.dcf packetSentToPeerMulticast:count 3
attr interpolationmode none
attr recordingmode count
attr source ieee80211Multicast(packetSentToPeer)
attr title "packets sent: multicast, count"
scalar V2VNetwork.node[0].wlan[0].mac.dcf packetSentToPeerMulticast:sum(packetBytes) 96
attr interpolationmode none
attr recordingmode sum(packetBytes)
attr source ieee80211Multicast(packetSentToPeer)
attr title "packets sent: multicast, sum(packetBytes)"
scalar V2VNetwork.node[0].wlan[0].mac.dcf packetSentToPeerBroadcast:count 3
attr interpolationmode none
attr recordingmode count
attr source ieee80211Broadcast(packetSentToPeer)
attr title "packets sent: broadcast , count"
scalar V2VNetwork.node[0].wlan[0].mac.dcf packetSentToPeerBroadcast:sum(packetBytes) 96
attr interpolationmode none
attr recordingmode sum(packetBytes)
attr source ieee80211Broadcast(packetSentToPeer)
attr title "packets sent: broadcast , sum(packetBytes)"
scalar V2VNetwork.node[0].wlan[0].mac.dcf packetSentToPeerWithRetry:count 0
attr interpolationmode none
attr recordingmode count
attr source ieee80211Retry(packetSentToPeer)
attr title "packets sent: with retry, count"
scalar V2VNetwork.node[0].wlan[0].mac.dcf packetSentToPeerWithRetry:sum(packetBytes) 0
attr interpolationmode none
attr recordingmode sum(packetBytes)
attr source ieee80211Retry(packetSentToPeer)
attr title "packets sent: with retry, sum(packetBytes)"
scalar V2VNetwork.node[0].wlan[0].mac.dcf packetSentToPeerWithoutRetry:count 3
attr interpolationmode none
attr recordingmode count
attr source ieee80211NotRetry(packetSentToPeer)
attr title "packets sent: without retry, count"
scalar V2VNetwork.node[0].wlan[0].mac.dcf packetSentToPeerWithoutRetry:sum(packetBytes) 96
attr interpolationmode none
attr recordingmode sum(packetBytes)
attr source ieee80211NotRetry(packetSentToPeer)
attr title "packets sent: without retry, sum(packetBytes)"
scalar V2VNetwork.node[0].wlan[0].mac.dcf packetDrop:count 0
attr interpolationmode none
attr recordingmode count
attr source packetDropped
attr title "packet drops, count"
scalar V2VNetwork.node[0].wlan[0].mac.dcf packetDrop:sum(packetBytes) 0
attr interpolationmode none
attr recordingmode sum(packetBytes)
attr source packetDropped
attr title "packet drops, sum(packetBytes)"
scalar V2VNetwork.node[0].wlan[0].mac.dcf packetDropNotAddressedToUs:count 0
attr interpolationmode none
attr recordingmode count
attr source packetDropReasonIsNotAddressedToUs(packetDropped)
attr title "packet drops: not addressed to us, count"
scalar V2VNetwork.node[0].wlan[0].mac.dcf packetDropNotAddressedToUs:sum(packetBytes) 0
attr interpolationmode none
attr recordingmode sum(packetBytes)
attr source packetDropReasonIsNotAddressedToUs(packetDropped)
attr title "packet drops: not addressed to us, sum(packetBytes)"
scalar V2VNetwork.node[0].wlan[0].mac.dcf packetDropQueueOverflow:count 0
attr interpolationmode none
attr recordingmode count
attr source packetDropReasonIsQueueOverflow(packetDropped)
attr title "packet drops: queue overflow, count"
scalar V2VNetwork.node[0].wlan[0].mac.dcf packetDropQueueOverflow:sum(packetBytes) 0
attr interpolationmode none
attr recordingmode sum(packetBytes)
attr source packetDropReasonIsQueueOverflow(packetDropped)
attr title "packet drops: queue overflow, sum(packetBytes)"
scalar V2VNetwork.node[0].wlan[0].mac.dcf packetDropRetryLimitReached:count 0
attr interpolationmode none
attr recordingmode count
attr source packetDropReasonIsRetryLimitReached(packetDropped)
attr title "packet drops: retry limit reached, count"
scalar V2VNetwork.node[0].wlan[0].mac.dcf packetDropRetryLimitReached:sum(packetBytes) 0
attr interpolationmode none
attr recordingmode sum(packetBytes)
attr source packetDropReasonIsRetryLimitReached(packetDropped)
attr title "packet drops: retry limit reached, sum(packetBytes)"
scalar V2VNetwork.node[0].wlan[0].mac.dcf linkBroken:count 0
attr interpolationmode none
attr recordingmode count
attr title "link breaks, count"
par V2VNetwork.node[0].wlan[0].mac.ds typename "\"inet.linklayer.ieee80211.mac.Ds\""
par V2VNetwork.node[0].wlan[0].mac.ds mibModule "\"V2VNetwork.node[0].wlan[0].mib\""
par V2VNetwork.node[0].wlan[0].mac.rx typename "\"inet.linklayer.ieee80211.mac.Rx\""
par V2VNetwork.node[0].wlan[0].mac.tx typename "\"inet.linklayer.ieee80211.mac.Tx\""
par V2VNetwork.node[0].wlan[0].mac.tx rxModule "\"^.rx\""
par V2VNetwork.node[0].wlan[0].mac typename "\"inet.linklayer.ieee80211.mac.Ieee80211Mac\""
par V2VNetwork.node[0].wlan[0].mac interfaceTableModule "\"V2VNetwork.node[0].interfaceTable\""
par V2VNetwork.node[0].wlan[0].mac mibModule "\"V2VNetwork.node[0].wlan[0].mib\""
par V2VNetwork.node[0].wlan[0].mac modeSet "\"g(mixed)\""
attr enum a,b,g(erp),g(mixed),n(mixed-2.4Ghz),p,ac
par V2VNetwork.node[0].wlan[0].mac fcsMode "\"declared\""
attr enum declared,computed
par V2VNetwork.node[0].wlan[0].mac initialRadioMode "\"receiver\""
attr enum off,sleep,receiver,transmitter,transceiver
par V2VNetwork.node[0].wlan[0].mac mtu 2304B
attr unit B
par V2VNetwork.node[0].wlan[0].mac qosStation false
scalar V2VNetwork.node[0].wlan[0].mac packetReceivedFromLower:count 6
attr interpolationmode none
attr recordingmode count
attr title "packets received from lower layer, count"
scalar V2VNetwork.node[0].wlan[0].mac packetReceivedFromLower:sum(packetBytes) 192
attr interpolationmode none
attr recordingmode sum(packetBytes)
attr title "packets received from lower layer, sum(packetBytes)"
scalar V2VNetwork.node[0].wlan[0].mac packetSentToLower:count 3
attr interpolationmode none
attr recordingmode count
attr title "packets sent to lower layer, count"
scalar V2VNetwork.node[0].wlan[0].mac packetSentToLower:sum(packetBytes) 96
attr interpolationmode none
attr recordingmode sum(packetBytes)
attr title "packets sent to lower layer, sum(packetBytes)"
scalar V2VNetwork.node[0].wlan[0].mac packetReceivedFromUpper:count 0
attr interpolationmode none
attr recordingmode count
attr title "packets received from upper layer, count"
scalar V2VNetwork.node[0].wlan[0].mac packetReceivedFromUpper:sum(packetBytes) 0
attr interpolationmode none
attr recordingmode sum(packetBytes)
attr title "packets received from upper layer, sum(packetBytes)"
scalar V2VNetwork.node[0].wlan[0].mac packetSentToUpper:count 0
attr interpolationmode none
attr recordingmode count
attr title "packets sent to upper layer, count"
scalar V2VNetwork.node[0].wlan[0].mac packetSentToUpper:sum(packetBytes) 0
attr interpolationmode none
attr recordingmode sum(packetBytes)
attr title "packets sent to upper layer, sum(packetBytes)"
scalar V2VNetwork.node[0].wlan[0].mac packetDrop:count 0
attr interpolationmode none
attr recordingmode count
attr source packetDropped
attr title "packet drops, count"
scalar V2VNetwork.node[0].wlan[0].mac packetDrop:sum(packetBytes) 0
attr interpolationmode none
attr recordingmode sum(packetBytes)
attr source packetDropped
attr title "packet drops, sum(packetBytes)"
scalar V2VNetwork.node[0].wlan[0].mac packetDropIncorrectlyReceived:count 0
attr interpolationmode none
attr recordingmode count
attr source packetDropReasonIsIncorrectlyReceived(packetDropped)
attr title "packet drops: incorrectly received, count"
scalar V2VNetwork.node[0].wlan[0].mac packetDropIncorrectlyReceived:sum(packetBytes) 0
attr interpolationmode none
attr recordingmode sum(packetBytes)
attr source packetDropReasonIsIncorrectlyReceived(packetDropped)
attr title "packet drops: incorrectly received, sum(packetBytes)"
scalar V2VNetwork.node[0].wlan[0].mac packetDropNotAddressedToUs:count 0
attr interpolationmode none
attr recordingmode count
attr source packetDropReasonIsNotAddressedToUs(packetDropped)
attr title "packet drops: not addressed to us, count"
scalar V2VNetwork.node[0].wlan[0].mac packetDropNotAddressedToUs:sum(packetBytes) 0
attr interpolationmode none
attr recordingmode sum(packetBytes)
attr source packetDropReasonIsNotAddressedToUs(packetDropped)
attr title "packet drops: not addressed to us, sum(packetBytes)"
scalar V2VNetwork.node[0].wlan[0].mac packetDropQueueOverflow:count 0
attr interpolationmode none
attr recordingmode count
attr source packetDropReasonIsQueueOverflow(packetDropped)
attr title "packet drops: queue overflow, count"
scalar V2VNetwork.node[0].wlan[0].mac packetDropQueueOverflow:sum(packetBytes) 0
attr interpolationmode none
attr recordingmode sum(packetBytes)
attr source packetDropReasonIsQueueOverflow(packetDropped)
attr title "packet drops: queue overflow, sum(packetBytes)"
scalar V2VNetwork.node[0].wlan[0].mac packetDropRetryLimitReached:count 0
attr interpolationmode none
attr recordingmode count
attr source packetDropReasonIsRetryLimitReached(packetDropped)
attr title "packet drops: retry limit reached, count"
scalar V2VNetwork.node[0].wlan[0].mac packetDropRetryLimitReached:sum(packetBytes) 0
attr interpolationmode none
attr recordingmode sum(packetBytes)
attr source packetDropReasonIsRetryLimitReached(packetDropped)
attr title "packet drops: retry limit reached, sum(packetBytes)"
scalar V2VNetwork.node[0].wlan[0].mac packetDropDuplicateDetected:count 0
attr interpolationmode none
attr recordingmode count
attr source packetDropReasonIsDuplicateDetected(packetDropped)
attr title "packet drops: duplicate detected, count"
scalar V2VNetwork.node[0].wlan[0].mac packetDropDuplicateDetected:sum(packetBytes) 0
attr interpolationmode none
attr recordingmode sum(packetBytes)
attr source packetDropReasonIsDuplicateDetected(packetDropped)
attr title "packet drops: duplicate detected, sum(packetBytes)"
scalar V2VNetwork.node[0].wlan[0].mac packetDropOther:count 0
attr interpolationmode none
attr recordingmode count
attr source packetDropReasonIsOther(packetDropped)
attr title "packet drops: other, count"
scalar V2VNetwork.node[0].wlan[0].mac packetDropOther:sum(packetBytes) 0
attr interpolationmode none
attr recordingmode sum(packetBytes)
attr source packetDropReasonIsOther(packetDropped)
attr title "packet drops: other, sum(packetBytes)"
scalar V2VNetwork.node[0].wlan[0].mac linkBroken:count 0
attr interpolationmode none
attr recordingmode count
attr title "link breaks, count"
par V2VNetwork.node[0].wlan[0].radio.antenna typename "\"inet.physicallayer.wireless.common.antenna.IsotropicAntenna\""
par V2VNetwork.node[0].wlan[0].radio.antenna mobilityModule "\"^.^.^.mobility\""
par V2VNetwork.node[0].wlan[0].radio.antenna numAntennas 1
par V2VNetwork.node[0].wlan[0].radio.transmitter typename "\"inet.physicallayer.wireless.ieee80211.packetlevel.Ieee80211ScalarTransmitter\""
par V2VNetwork.node[0].wlan[0].radio.transmitter preambleDuration -1s
attr unit s
par V2VNetwork.node[0].wlan[0].radio.transmitter headerLength 192b
attr unit b
par V2VNetwork.node[0].wlan[0].radio.transmitter bitrate -1bps
attr unit bps
par V2VNetwork.node[0].wlan[0].radio.transmitter power 0.02W
attr unit W
par V2VNetwork.node[0].wlan[0].radio.transmitter centerFrequency 2.412e+09Hz
attr unit Hz
par V2VNetwork.node[0].wlan[0].radio.transmitter bandwidth "nan Hz"
attr unit Hz
par V2VNetwork.node[0].wlan[0].radio.transmitter codeRate 1
par V2VNetwork.node[0].wlan[0].radio.transmitter modulation "\"BPSK\""
par V2VNetwork.node[0].wlan[0].radio.transmitter opMode "\"g(mixed)\""
attr enum a,b,g(erp),g(mixed),n(mixed-2.4Ghz),p,ac
par V2VNetwork.node[0].wlan[0].radio.transmitter bandName "\"2.4 GHz\""
attr enum "2.4 GHz,5 GHz,5 GHz (20 MHz),5 GHz (40 MHz),5 GHz (80 MHz),5 GHz (160 MHz),5.9 GHz"
par V2VNetwork.node[0].wlan[0].radio.transmitter channelNumber 0
par V2VNetwork.node[0].wlan[0].radio.receiver.errorModel typename "\"inet.physicallayer.wireless.ieee80211.packetlevel.errormodel.Ieee80211NistErrorModel\""
par V2VNetwork.node[0].wlan[0].radio.receiver.errorModel corruptionMode "\"packet\""
attr enum packet,chunk,byte,bit
par V2VNetwork.node[0].wlan[0].radio.receiver.errorModel snirMode "\"min\""
attr enum min,mean
par V2VNetwork.node[0].wlan[0].radio.receiver.errorModel snirOffset 0dB
attr unit dB
par V2VNetwork.node[0].wlan[0].radio.receiver typename "\"inet.physicallayer.wireless.ieee80211.packetlevel.Ieee80211ScalarReceiver\""
par V2VNetwork.node[0].wlan[0].radio.receiver snirThreshold 4dB
attr unit dB
par V2VNetwork.node[0].wlan[0].radio.receiver snirThresholdMode "\"min\""
attr enum min,mean
par V2VNetwork.node[0].wlan[0].radio.receiver energyDetection -85dBm
attr unit dBm
par V2VNetwork.node[0].wlan[0].radio.receiver sensitivity -85dBm
attr unit dBm
par V2VNetwork.node[0].wlan[0].radio.receiver centerFrequency 2.412e+09Hz
attr unit Hz
par V2VNetwork.node[0].wlan[0].radio.receiver bandwidth 2.2e+07Hz
attr unit Hz
par V2VNetwork.node[0].wlan[0].radio.receiver modulation "\"BPSK\""
par V2VNetwork.node[0].wlan[0].radio.receiver opMode "\"g(mixed)\""
attr enum a,b,g(erp),g(mixed),n(mixed-2.4Ghz),p,ac
par V2VNetwork.node[0].wlan[0].radio.receiver bandName "\"2.4 GHz\""
attr enum "2.4 GHz,5 GHz,5 GHz (20 MHz),5 GHz (40 MHz),5 GHz (80 MHz),5 GHz (160 MHz),5.9 GHz"
par V2VNetwork.node[0].wlan[0].radio.receiver channelNumber 0
par V2VNetwork.node[0].wlan[0].radio typename "\"inet.physicallayer.wireless.ieee80211.packetlevel.Ieee80211ScalarRadio\""
par V2VNetwork.node[0].wlan[0].radio radioMediumModule "\"radioMedium\""
par V2VNetwork.node[0].wlan[0].radio energySourceModule "\"\""
par V2VNetwork.node[0].wlan[0].radio initialRadioMode "\"off\""
attr enum off,sleep,receiver,transmitter,transceiver
par V2VNetwork.node[0].wlan[0].radio switchingTimes "\"ms 0 0 0 0 0 0 0 0 0 0 0 0 0 0 0 0 0 0 0 0 0 0 0 0 0\""
par V2VNetwork.node[0].wlan[0].radio sendRawBytes false
par V2VNetwork.node[0].wlan[0].radio separateTransmissionParts false
par V2VNetwork.node[0].wlan[0].radio separateReceptionParts false
par V2VNetwork.node[0].wlan[0].radio displayCommunicationRange false
par V2VNetwork.node[0].wlan[0].radio displayInterferenceRange false
par V2VNetwork.node[0].wlan[0].radio centerFrequency 2.412e+09Hz
attr unit Hz
par V2VNetwork.node[0].wlan[0].radio bandwidth "nan Hz"
attr unit Hz
par V2VNetwork.node[0].wlan[0].radio signalAnalogRepresentation "\"scalar\""
attr enum scalar,dimensional
par V2VNetwork.node[0].wlan[0].radio opMode "\"g(mixed)\""
attr enum a,b,g(erp),g(mixed),n(mixed-2.4Ghz),p,ac
par V2VNetwork.node[0].wlan[0].radio bandName "\"2.4 GHz\""
attr enum "2.4 GHz,5 GHz,5 GHz (20 MHz),5 GHz (40 MHz),5 GHz (80 MHz),5 GHz (160 MHz),5.9 GHz"
par V2VNetwork.node[0].wlan[0].radio channelNumber 0
par V2VNetwork.node[0].wlan[0].radio crcMode "\"declared\""
attr enum declared,computed
statistic V2VNetwork.node[0].wlan[0].radio radioChannel:histogram
field count 4
field mean 0
field stddev 0
field min 0
field max 0
field sum 0
field sqrsum 0
attr interpolationmode sample-hold
attr recordingmode histogram
attr source radioChannelChanged
attr title "Radio channel"
bin	-inf	0
bin	-0.5	0
bin	-0.48	0
bin	-0.46	0
bin	-0.44	0
bin	-0.42	0
bin	-0.4	0
bin	-0.38	0
bin	-0.36	0
bin	-0.34	0
bin	-0.32	0
bin	-0.3	0
bin	-0.28	0
bin	-0.26	0
bin	-0.24	0
bin	-0.22	0
bin	-0.2	0
bin	-0.18	0
bin	-0.16	0
bin	-0.14	0
bin	-0.12	0
bin	-0.1	0
bin	-0.08	0
bin	-0.06	0
bin	-0.04	0
bin	-0.02	0
bin	0	4
bin	0.02	0
bin	0.04	0
bin	0.06	0
bin	0.08	0
bin	0.1	0
bin	0.12	0
bin	0.14	0
bin	0.16	0
bin	0.18	0
bin	0.2	0
bin	0.22	0
bin	0.24	0
bin	0.26	0
bin	0.28	0
bin	0.3	0
bin	0.32	0
bin	0.34	0
bin	0.36	0
bin	0.38	0
bin	0.4	0
bin	0.42	0
bin	0.44	0
bin	0.46	0
bin	0.48	0
bin	0.5	0
scalar V2VNetwork.node[0].wlan[0].radio radioMode:count 9
attr interpolationmode sample-hold
attr recordingmode count
attr source radioModeChanged
attr title "Radio mode, count"
scalar V2VNetwork.node[0].wlan[0].radio receptionState:count 19
attr interpolationmode sample-hold
attr recordingmode count
attr source receptionStateChanged
attr title "Radio reception state, count"
scalar V2VNetwork.node[0].wlan[0].radio transmissionState:count 12
attr interpolationmode sample-hold
attr recordingmode count
attr source transmissionStateChanged
attr title "Radio transmission state, count"
statistic V2VNetwork.node[0].wlan[0].radio minSnir:histogram
field count 6
field mean 469.91277260922
field stddev 140.61012711343
field min 338.86331473056
field max 601.8042786588
field sum 2819.4766356553
field sqrsum 1423764.122402
attr recordingmode histogram
attr source minimumSnir(packetSentToUpper)
attr title "Min SNIR"
bin	-inf	0
bin	270	0
bin	275	0
bin	280	0
bin	285	0
bin	290	0
bin	295	0
bin	300	0
bin	305	0
bin	310	0
bin	315	0
bin	320	0
bin	325	0
bin	330	0
bin	335	1
bin	340	2
bin	345	0
bin	350	0
bin	355	0
bin	360	0
bin	365	0
bin	370	0
bin	375	0
bin	380	0
bin	385	0
bin	390	0
bin	395	0
bin	400	0
bin	405	0
bin	410	0
bin	415	0
bin	420	0
bin	425	0
bin	430	0
bin	435	0
bin	440	0
bin	445	0
bin	450	0
bin	455	0
bin	460	0
bin	465	0
bin	470	0
bin	475	0
bin	480	0
bin	485	0
bin	490	0
bin	495	0
bin	500	0
bin	505	0
bin	510	0
bin	515	0
bin	520	0
bin	525	0
bin	530	0
bin	535	0
bin	540	0
bin	545	0
bin	550	0
bin	555	0
bin	560	0
bin	565	0
bin	570	0
bin	575	0
bin	580	0
bin	585	0
bin	590	1
bin	595	1
bin	600	1
bin	605	0
bin	610	0
bin	615	0
bin	620	0
bin	625	0
bin	630	0
bin	635	0
bin	640	0
bin	645	0
bin	650	0
bin	655	0
bin	660	0
bin	665	0
bin	670	0
statistic V2VNetwork.node[0].wlan[0].radio packetErrorRate:histogram
field count 6
field mean 0
field stddev 0
field min 0
field max 0
field sum 0
field sqrsum 0
attr recordingmode histogram
attr source packetErrorRate(packetSentToUpper)
attr title "Packet error rate"
bin	-inf	0
bin	-0.5	0
bin	-0.48	0
bin	-0.46	0
bin	-0.44	0
bin	-0.42	0
bin	-0.4	0
bin	-0.38	0
bin	-0.36	0
bin	-0.34	0
bin	-0.32	0
bin	-0.3	0
bin	-0.28	0
bin	-0.26	0
bin	-0.24	0
bin	-0.22	0
bin	-0.2	0
bin	-0.18	0
bin	-0.16	0
bin	-0.14	0
bin	-0.12	0
bin	-0.1	0
bin	-0.08	0
bin	-0.06	0
bin	-0.04	0
bin	-0.02	0
bin	0	6
bin	0.02	0
bin	0.04	0
bin	0.06	0
bin	0.08	0
bin	0.1	0
bin	0.12	0
bin	0.14	0
bin	0.16	0
bin	0.18	0
bin	0.2	0
bin	0.22	0
bin	0.24	0
bin	0.26	0
bin	0.28	0
bin	0.3	0
bin	0.32	0
bin	0.34	0
bin	0.36	0
bin	0.38	0
bin	0.4	0
bin	0.42	0
bin	0.44	0
bin	0.46	0
bin	0.48	0
bin	0.5	0
statistic V2VNetwork.node[0].wlan[0].radio bitErrorRate:histogram
field count 0
field mean -nan
field stddev nan
field min nan
field max nan
field sum 0
field sqrsum 0
attr recordingmode histogram
attr source bitErrorRate(packetSentToUpper)
attr title "Bit error rate"
bin	-inf	0
bin	0	0
bin	1	0
statistic V2VNetwork.node[0].wlan[0].radio symbolErrorRate:histogram
field count 0
field mean -nan
field stddev nan
field min nan
field max nan
field sum 0
field sqrsum 0
attr recordingmode histogram
attr source symbolErrorRate(packetSentToUpper)
attr title "Symbol error rate"
bin	-inf	0
bin	0	0
bin	1	0
par V2VNetwork.node[0].wlan[0] typename "\"inet.linklayer.ieee80211.Ieee80211Interface\""
par V2VNetwork.node[0].wlan[0] displayStringTextFormat "\"%a (%i)\\n%m\""
par V2VNetwork.node[0].wlan[0] recordPcap false
par V2VNetwork.node[0].wlan[0] numPcapRecorders 0
par V2VNetwork.node[0].wlan[0] interfaceTableModule "\"V2VNetwork.node[0].interfaceTable\""
par V2VNetwork.node[0].wlan[0] energySourceModule "\"\""
par V2VNetwork.node[0].wlan[0] opMode "\"g(mixed)\""
attr enum a,b,g(erp),g(mixed),n(mixed-2.4Ghz),p,ac
par V2VNetwork.node[0].wlan[0] address "\"0A-AA-00-00-00-01\""
attr mutable ""
par V2VNetwork.node[0].wlan[0] protocol "\"\""
par V2VNetwork.node[0].wlan[0] bitrate -1bps
attr unit bps
scalar V2VNetwork.node[0].wlan[0] packetDropInterfaceDown:count 0
attr interpolationmode none
attr recordingmode count
attr source packetDropReasonIsInterfaceDown(packetDropped)
attr title "packet drops: interface down, count"
scalar V2VNetwork.node[0].wlan[0] packetDropInterfaceDown:sum(packetBytes) 0
attr interpolationmode none
attr recordingmode sum(packetBytes)
attr source packetDropReasonIsInterfaceDown(packetDropped)
attr title "packet drops: interface down, sum(packetBytes)"
scalar V2VNetwork.node[0].wlan[0] packetDropNoCarrier:count 0
attr interpolationmode none
attr recordingmode count
attr source packetDropReasonIsNoCarrier(packetDropped)
attr title "packet drops: no carrier, count"
scalar V2VNetwork.node[0].wlan[0] packetDropNoCarrier:sum(packetBytes) 0
attr interpolationmode none
attr recordingmode sum(packetBytes)
attr source packetDropReasonIsNoCarrier(packetDropped)
attr title "packet drops: no carrier, sum(packetBytes)"
par V2VNetwork.node[0].ipv4.transportIn.channel typename "\"ned.IdealChannel\""
par V2VNetwork.node[0].ipv4.up.out[0].channel typename "\"ned.IdealChannel\""
par V2VNetwork.node[0].ipv4.lp.out[2].channel typename "\"ned.IdealChannel\""
par V2VNetwork.node[0].ipv4.ifIn.channel typename "\"ned.IdealChannel\""
par V2VNetwork.node[0].ipv4.configurator typename "\"inet.networklayer.configurator.ipv4.Ipv4NodeConfigurator\""
par V2VNetwork.node[0].ipv4.configurator interfaceTableModule "\"V2VNetwork.node[0].interfaceTable\""
par V2VNetwork.node[0].ipv4.configurator routingTableModule "\"V2VNetwork.node[0].ipv4.routingTable\""
par V2VNetwork.node[0].ipv4.configurator networkConfiguratorModule "\"configurator\""
par V2VNetwork.node[0].ipv4.configurator configureRoutingTable true
par V2VNetwork.node[0].ipv4.routingTable typename "\"inet.networklayer.ipv4.Ipv4RoutingTable\""
par V2VNetwork.node[0].ipv4.routingTable interfaceTableModule "\"V2VNetwork.node[0].interfaceTable\""
par V2VNetwork.node[0].ipv4.routingTable routerId "\"auto\""
par V2VNetwork.node[0].ipv4.routingTable netmaskRoutes "\"*\""
par V2VNetwork.node[0].ipv4.routingTable forwarding false
par V2VNetwork.node[0].ipv4.routingTable multicastForwarding false
par V2VNetwork.node[0].ipv4.routingTable useAdminDist false
par V2VNetwork.node[0].ipv4.routingTable routingFile "\"\""
par V2VNetwork.node[0].ipv4.natTable typename "\"inet.networklayer.ipv4.Ipv4NatTable\""
par V2VNetwork.node[0].ipv4.natTable networkProtocolModule "\"^.ip\""
par V2VNetwork.node[0].ipv4.natTable config "<config/> at content:1"
par V2VNetwork.node[0].ipv4.up typename "\"inet.common.MessageDispatcher\""
par V2VNetwork.node[0].ipv4.up displayStringTextFormat "\"processed %p pk (%l)\""
par V2VNetwork.node[0].ipv4.up forwardServiceRegistration true
par V2VNetwork.node[0].ipv4.up forwardProtocolRegistration true
par V2VNetwork.node[0].ipv4.igmp typename "\"inet.networklayer.ipv4.Igmpv2\""
par V2VNetwork.node[0].ipv4.igmp interfaceTableModule "\"V2VNetwork.node[0].interfaceTable\""
par V2VNetwork.node[0].ipv4.igmp routingTableModule "\"V2VNetwork.node[0].ipv4.routingTable\""
par V2VNetwork.node[0].ipv4.igmp crcMode "\"declared\""
attr enum declared,computed
par V2VNetwork.node[0].ipv4.igmp enabled true
par V2VNetwork.node[0].ipv4.igmp robustnessVariable 2
par V2VNetwork.node[0].ipv4.igmp queryInterval 125s
attr unit s
par V2VNetwork.node[0].ipv4.igmp queryResponseInterval 10s
attr unit s
par V2VNetwork.node[0].ipv4.igmp groupMembershipInterval 260s
attr unit s
par V2VNetwork.node[0].ipv4.igmp otherQuerierPresentInterval 255s
attr unit s
par V2VNetwork.node[0].ipv4.igmp startupQueryInterval 31.25s
attr unit s
par V2VNetwork.node[0].ipv4.igmp startupQueryCount 2
par V2VNetwork.node[0].ipv4.igmp lastMemberQueryInterval 1s
attr unit s
par V2VNetwork.node[0].ipv4.igmp lastMemberQueryCount 2
par V2VNetwork.node[0].ipv4.igmp unsolicitedReportInterval 10s
attr unit s
par V2VNetwork.node[0].ipv4.icmp typename "\"inet.networklayer.ipv4.Icmp\""
par V2VNetwork.node[0].ipv4.icmp interfaceTableModule "\"V2VNetwork.node[0].interfaceTable\""
par V2VNetwork.node[0].ipv4.icmp routingTableModule "\"V2VNetwork.node[0].ipv4.routingTable\""
par V2VNetwork.node[0].ipv4.icmp crcMode "\"declared\""
attr enum declared,computed
attr mutable ""
par V2VNetwork.node[0].ipv4.icmp quoteLength 8B
attr mutable ""
attr unit B
par V2VNetwork.node[0].ipv4.mp typename "\"inet.common.MessageDispatcher\""
par V2VNetwork.node[0].ipv4.mp displayStringTextFormat "\"processed %p pk (%l)\""
par V2VNetwork.node[0].ipv4.mp forwardServiceRegistration true
par V2VNetwork.node[0].ipv4.mp forwardProtocolRegistration true
par V2VNetwork.node[0].ipv4.ip typename "\"inet.networklayer.ipv4.Ipv4\""
par V2VNetwork.node[0].ipv4.ip interfaceTableModule "\"V2VNetwork.node[0].interfaceTable\""
par V2VNetwork.node[0].ipv4.ip routingTableModule "\"V2VNetwork.node[0].ipv4.routingTable\""
par V2VNetwork.node[0].ipv4.ip arpModule "\"V2VNetwork.node[0].ipv4.arp\""
par V2VNetwork.node[0].ipv4.ip icmpModule "\"V2VNetwork.node[0].ipv4.icmp\""
par V2VNetwork.node[0].ipv4.ip crcMode "\"declared\""
attr enum declared,computed
par V2VNetwork.node[0].ipv4.ip timeToLive 32
par V2VNetwork.node[0].ipv4.ip multicastTimeToLive 32
par V2VNetwork.node[0].ipv4.ip fragmentTimeout 60s
attr unit s
par V2VNetwork.node[0].ipv4.ip limitedBroadcast false
par V2VNetwork.node[0].ipv4.ip directBroadcastInterfaces "\"\""
scalar V2VNetwork.node[0].ipv4.ip packetDropAddressResolutionFailed:count 0
attr interpolationmode none
attr recordingmode count
attr source packetDropReasonIsAddressResolutionFailed(packetDropped)
attr title "packet drop: address resolution failed, count"
scalar V2VNetwork.node[0].ipv4.ip packetDropAddressResolutionFailed:sum(packetBytes) 0
attr interpolationmode none
attr recordingmode sum(packetBytes)
attr source packetDropReasonIsAddressResolutionFailed(packetDropped)
attr title "packet drop: address resolution failed, sum(packetBytes)"
scalar V2VNetwork.node[0].ipv4.ip packetDropHopLimitReached:count 0
attr interpolationmode none
attr recordingmode count
attr source packetDropReasonIsHopLimitReached(packetDropped)
attr title "packet drop: hop limit reached, count"
scalar V2VNetwork.node[0].ipv4.ip packetDropHopLimitReached:sum(packetBytes) 0
attr interpolationmode none
attr recordingmode sum(packetBytes)
attr source packetDropReasonIsHopLimitReached(packetDropped)
attr title "packet drop: hop limit reached, sum(packetBytes)"
scalar V2VNetwork.node[0].ipv4.ip packetDropForwardingDisabled:count 0
attr interpolationmode none
attr recordingmode count
attr source packetDropReasonIsForwardingDisabled(packetDropped)
attr title "packet drop: forwarding disabled, count"
scalar V2VNetwork.node[0].ipv4.ip packetDropForwardingDisabled:sum(packetBytes) 0
attr interpolationmode none
attr recordingmode sum(packetBytes)
attr source packetDropReasonIsForwardingDisabled(packetDropped)
attr title "packet drop: forwarding disabled, sum(packetBytes)"
scalar V2VNetwork.node[0].ipv4.ip packetDropNoInterfaceFound:count 0
attr interpolationmode none
attr recordingmode count
attr source packetDropReasonIsNoInterfaceFound(packetDropped)
attr title "packet drop: no interface found, count"
scalar V2VNetwork.node[0].ipv4.ip packetDropNoInterfaceFound:sum(packetBytes) 0
attr interpolationmode none
attr recordingmode sum(packetBytes)
attr source packetDropReasonIsNoInterfaceFound(packetDropped)
attr title "packet drop: no interface found, sum(packetBytes)"
scalar V2VNetwork.node[0].ipv4.ip packetDropNoRouteFound:count 0
attr interpolationmode none
attr recordingmode count
attr source packetDropReasonIsNoRouteFound(packetDropped)
attr title "packet drop: no route found, count"
scalar V2VNetwork.node[0].ipv4.ip packetDropNoRouteFound:sum(packetBytes) 0
attr interpolationmode none
attr recordingmode sum(packetBytes)
attr source packetDropReasonIsNoRouteFound(packetDropped)
attr title "packet drop: no route found, sum(packetBytes)"
scalar V2VNetwork.node[0].ipv4.ip packetDropUndefined:count 0
attr interpolationmode none
attr recordingmode count
attr source packetDropReasonIsUndefined(packetDropped)
attr title "packet drop: undefined, count"
scalar V2VNetwork.node[0].ipv4.ip packetDropUndefined:sum(packetBytes) 0
attr interpolationmode none
attr recordingmode sum(packetBytes)
attr source packetDropReasonIsUndefined(packetDropped)
attr title "packet drop: undefined, sum(packetBytes)"
par V2VNetwork.node[0].ipv4.arp typename "\"inet.networklayer.arp.ipv4.Arp\""
par V2VNetwork.node[0].ipv4.arp interfaceTableModule "\"V2VNetwork.node[0].interfaceTable\""
par V2VNetwork.node[0].ipv4.arp routingTableModule "\"V2VNetwork.node[0].ipv4.routingTable\""
par V2VNetwork.node[0].ipv4.arp retryTimeout 1s
attr unit s
par V2VNetwork.node[0].ipv4.arp retryCount 3
par V2VNetwork.node[0].ipv4.arp cacheTimeout 120s
attr unit s
par V2VNetwork.node[0].ipv4.arp proxyArpInterfaces "\"\""
scalar V2VNetwork.node[0].ipv4.arp arpResolutionFailed:count 0
attr recordingmode count
attr title "ARP failed resolutions, count"
scalar V2VNetwork.node[0].ipv4.arp arpResolutionCompleted:count 0
attr recordingmode count
attr title "ARP completed resolutions, count"
scalar V2VNetwork.node[0].ipv4.arp arpResolutionInitiated:count 0
attr recordingmode count
attr title "ARP initiated resolutions, count"
scalar V2VNetwork.node[0].ipv4.arp arpReplySent:count 0
attr recordingmode count
attr source arpReplySent
attr title "ARP replies sent, count"
scalar V2VNetwork.node[0].ipv4.arp arpReplySent:sum(packetBytes) 0
attr recordingmode sum(packetBytes)
attr source arpReplySent
attr title "ARP replies sent, sum(packetBytes)"
scalar V2VNetwork.node[0].ipv4.arp arpRequestSent:count 0
attr recordingmode count
attr source arpRequestSent
attr title "ARP request sent, count"
scalar V2VNetwork.node[0].ipv4.arp arpRequestSent:sum(packetBytes) 0
attr recordingmode sum(packetBytes)
attr source arpRequestSent
attr title "ARP request sent, sum(packetBytes)"
par V2VNetwork.node[0].ipv4.lp typename "\"inet.common.MessageDispatcher\""
par V2VNetwork.node[0].ipv4.lp displayStringTextFormat "\"processed %p pk (%l)\""
par V2VNetwork.node[0].ipv4.lp forwardServiceRegistration true
par V2VNetwork.node[0].ipv4.lp forwardProtocolRegistration true
par V2VNetwork.node[0].ipv4 typename "\"inet.networklayer.ipv4.Ipv4NetworkLayer\""
par V2VNetwork.node[0].ipv4 forwarding false
par V2VNetwork.node[0].ipv4 multicastForwarding false
par V2VNetwork.node[0].ipv4 interfaceTableModule "\"V2VNetwork.node[0].interfaceTable\""
par V2VNetwork.node[0].ipv4 displayStringTextFormat "\"%i\""
par V2VNetwork.node[0].nl typename "\"inet.common.MessageDispatcher\""
par V2VNetwork.node[0].nl displayStringTextFormat "\"processed %p pk (%l)\""
par V2VNetwork.node[0].nl forwardServiceRegistration true
par V2VNetwork.node[0].nl forwardProtocolRegistration true
par V2VNetwork.node[0].udp typename "\"inet.transportlayer.udp.Udp\""
par V2VNetwork.node[0].udp interfaceTableModule "\"V2VNetwork.node[0].interfaceTable\""
par V2VNetwork.node[0].udp icmpModule "\"^.ipv4.icmp\""
par V2VNetwork.node[0].udp icmpv6Module "\"^.ipv6.icmpv6\""
par V2VNetwork.node[0].udp crcMode "\"declared\""
attr enum disabled,declared,computed
par V2VNetwork.node[0].udp defaultMulticastLoop true
scalar V2VNetwork.node[0].udp packetReceived:count 0
attr interpolationmode none
attr recordingmode count
attr source packetReceived
attr title "packets received, count"
scalar V2VNetwork.node[0].udp packetReceived:sum(packetBytes) 0
attr interpolationmode none
attr recordingmode sum(packetBytes)
attr source packetReceived
attr title "packets received, sum(packetBytes)"
scalar V2VNetwork.node[0].udp packetSent:count 0
attr interpolationmode none
attr recordingmode count
attr source packetSent
attr title "packets sent, count"
scalar V2VNetwork.node[0].udp packetSent:sum(packetBytes) 0
attr interpolationmode none
attr recordingmode sum(packetBytes)
attr source packetSent
attr title "packets sent, sum(packetBytes)"
scalar V2VNetwork.node[0].udp passedUpPk:count 0
attr interpolationmode none
attr recordingmode count
attr source packetSentToUpper
attr title "packets passed up, count"
scalar V2VNetwork.node[0].udp droppedPkWrongPort:count 0
attr interpolationmode none
attr recordingmode count
attr source packetDropReasonIsNoPortFound(packetDropped)
attr title "packets dropped (wrong port), count"
scalar V2VNetwork.node[0].udp droppedPkBadChecksum:count 0
attr interpolationmode none
attr recordingmode count
attr source packetDropReasonIsIncorrectlyReceived(packetDropped)
attr title "packets dropped (checksum error), count"
par V2VNetwork.node[0].tcp typename "\"inet.transportlayer.tcp.Tcp\""
par V2VNetwork.node[0].tcp crcMode "\"declared\""
attr enum declared,computed
par V2VNetwork.node[0].tcp advertisedWindow 7504
par V2VNetwork.node[0].tcp delayedAcksEnabled false
par V2VNetwork.node[0].tcp nagleEnabled true
par V2VNetwork.node[0].tcp limitedTransmitEnabled false
par V2VNetwork.node[0].tcp increasedIWEnabled false
par V2VNetwork.node[0].tcp sackSupport false
par V2VNetwork.node[0].tcp windowScalingSupport false
par V2VNetwork.node[0].tcp windowScalingFactor -1
par V2VNetwork.node[0].tcp timestampSupport false
par V2VNetwork.node[0].tcp mss 536
par V2VNetwork.node[0].tcp msl 120s
attr unit s
par V2VNetwork.node[0].tcp tcpAlgorithmClass "\"TcpReno\""
par V2VNetwork.node[0].tcp useDataNotification false
par V2VNetwork.node[0].tcp dupthresh 3
par V2VNetwork.node[0].tcp initialSsthresh 4294967295
par V2VNetwork.node[0].tcp stopOperationExtraTime 0s
attr unit s
par V2VNetwork.node[0].tcp stopOperationTimeout 2s
attr unit s
par V2VNetwork.node[0].tcp ecnWillingness false
par V2VNetwork.node[0].tcp dctcpGamma 0.0625
par V2VNetwork.node[0].tn typename "\"inet.common.MessageDispatcher\""
par V2VNetwork.node[0].tn displayStringTextFormat "\"processed %p pk (%l)\""
par V2VNetwork.node[0].tn forwardServiceRegistration true
par V2VNetwork.node[0].tn forwardProtocolRegistration true
par V2VNetwork.node[0].at typename "\"inet.common.MessageDispatcher\""
par V2VNetwork.node[0].at displayStringTextFormat "\"processed %p pk (%l)\""
par V2VNetwork.node[0].at forwardServiceRegistration true
par V2VNetwork.node[0].at forwardProtocolRegistration true
par V2VNetwork.node[0] typename "\"inet.node.inet.WirelessHost\""
par V2VNetwork.node[0] hasStatus false
par V2VNetwork.node[0] osgModel "\"\""
par V2VNetwork.node[0] osgModelColor "\"\""
par V2VNetwork.node[0] canvasImage "\"\""
par V2VNetwork.node[0] canvasImageColor "\"\""
par V2VNetwork.node[0] recordPcap false
par V2VNetwork.node[0] numPcapRecorders 0
par V2VNetwork.node[0] numLoInterfaces 1
par V2VNetwork.node[0] numWlanInterfaces 1
par V2VNetwork.node[0] numEthInterfaces 0
par V2VNetwork.node[0] numPppInterfaces 0
par V2VNetwork.node[0] numTunInterfaces 0
par V2VNetwork.node[0] numVirtInterfaces 0
par V2VNetwork.node[0] fcsMode "\"declared\""
attr enum declared,computed
par V2VNetwork.node[0] hasIpv4 true
par V2VNetwork.node[0] hasIpv6 false
par V2VNetwork.node[0] hasGn false
par V2VNetwork.node[0] forwarding false
par V2VNetwork.node[0] multicastForwarding false
par V2VNetwork.node[0] hasUdp true
par V2VNetwork.node[0] hasTcp true
par V2VNetwork.node[0] hasSctp false
par V2VNetwork.node[0] numApps 0
par V2VNetwork.node[1].radioIn[0].channel typename "\"ned.IdealChannel\""
par V2VNetwork.node[1].mobility typename "\"inet.mobility.single.RandomWaypointMobility\""
par V2VNetwork.node[1].mobility subjectModule "\"^\""
par V2VNetwork.node[1].mobility coordinateSystemModule "\"\""
par V2VNetwork.node[1].mobility displayStringTextFormat "\"p: %p\\nv: %v\""
attr mutable ""
par V2VNetwork.node[1].mobility updateDisplayString true
par V2VNetwork.node[1].mobility constraintAreaMinX 0m
attr unit m
par V2VNetwork.node[1].mobility constraintAreaMinY 0m
attr unit m
par V2VNetwork.node[1].mobility constraintAreaMinZ 0m
attr unit m
par V2VNetwork.node[1].mobility constraintAreaMaxX 2000m
attr unit m
par V2VNetwork.node[1].mobility constraintAreaMaxY 2000m
attr unit m
par V2VNetwork.node[1].mobility constraintAreaMaxZ 0m
attr unit m
par V2VNetwork.node[1].mobility updateInterval 0.1s
attr unit s
par V2VNetwork.node[1].mobility faceForward true
par V2VNetwork.node[1].mobility initialX 1922.13m
attr unit m
par V2VNetwork.node[1].mobility initialY 301.382m
attr unit m
par V2VNetwork.node[1].mobility initialZ 0m
attr unit m
par V2VNetwork.node[1].mobility initFromDisplayString true
par V2VNetwork.node[1].mobility speed "uniform(10mps, 20mps)"
attr unit mps
par V2VNetwork.node[1].mobility waitTime "uniform(0.5s, 2s)"
attr unit s
par V2VNetwork.node[1].interfaceTable typename "\"inet.networklayer.common.InterfaceTable\""
par V2VNetwork.node[1].interfaceTable displayAddresses false
par V2VNetwork.node[1].cb typename "\"inet.common.MessageDispatcher\""
par V2VNetwork.node[1].cb displayStringTextFormat "\"processed %p pk (%l)\""
par V2VNetwork.node[1].cb forwardServiceRegistration true
par V2VNetwork.node[1].cb forwardProtocolRegistration true
par V2VNetwork.node[1].bl typename "\"inet.common.MessageDispatcher\""
par V2VNetwork.node[1].bl displayStringTextFormat "\"processed %p pk (%l)\""
par V2VNetwork.node[1].bl forwardServiceRegistration true
par V2VNetwork.node[1].bl forwardProtocolRegistration true
par V2VNetwork.node[1].li typename "\"inet.common.MessageDispatcher\""
par V2VNetwork.node[1].li displayStringTextFormat "\"processed %p pk (%l)\""
par V2VNetwork.node[1].li forwardServiceRegistration true
par V2VNetwork.node[1].li forwardProtocolRegistration true
par V2VNetwork.node[1].lo[0].upperLayerIn.channel typename "\"ned.IdealChannel\""
par V2VNetwork.node[1].lo[0].lo.upperLayerOut.channel typename "\"ned.IdealChannel\""
par V2VNetwork.node[1].lo[0].lo typename "\"inet.linklayer.loopback.Loopback\""
par V2VNetwork.node[1].lo[0].lo interfaceTableModule "\"V2VNetwork.node[1].interfaceTable\""
par V2VNetwork.node[1].lo[0].lo mtu 4470B
attr unit B
scalar V2VNetwork.node[1].lo[0].lo rcvdPkFromHl:count 0
attr interpolationmode none
attr recordingmode count
attr source packetReceivedFromUpper
attr title "packets received from higher layer, count"
scalar V2VNetwork.node[1].lo[0].lo rcvdPkFromHl:sum(packetBytes) 0
attr interpolationmode none
attr recordingmode sum(packetBytes)
attr source packetReceivedFromUpper
attr title "packets received from higher layer, sum(packetBytes)"
scalar V2VNetwork.node[1].lo[0].lo passedUpPk:count 0
attr interpolationmode none
attr recordingmode count
attr source packetSentToUpper
attr title "packets passed to higher layer, count"
scalar V2VNetwork.node[1].lo[0].lo passedUpPk:sum(packetBytes) 0
attr interpolationmode none
attr recordingmode sum(packetBytes)
attr source packetSentToUpper
attr title "packets passed to higher layer, sum(packetBytes)"
par V2VNetwork.node[1].lo[0] typename "\"inet.linklayer.loopback.LoopbackInterface\""
par V2VNetwork.node[1].lo[0] displayStringTextFormat "\"%a (%i)\\n%m\""
par V2VNetwork.node[1].lo[0] recordPcap false
par V2VNetwork.node[1].lo[0] numPcapRecorders 0
par V2VNetwork.node[1].lo[0] interfaceTableModule "\"V2VNetwork.node[1].interfaceTable\""
scalar V2VNetwork.node[1].lo[0] packetDropInterfaceDown:count 0
attr interpolationmode none
attr recordingmode count
attr source packetDropReasonIsInterfaceDown(packetDropped)
attr title "packet drops: interface down, count"
scalar V2VNetwork.node[1].lo[0] packetDropInterfaceDown:sum(packetBytes) 0
attr interpolationmode none
attr recordingmode sum(packetBytes)
attr source packetDropReasonIsInterfaceDown(packetDropped)
attr title "packet drops: interface down, sum(packetBytes)"
scalar V2VNetwork.node[1].lo[0] packetDropNoCarrier:count 0
attr interpolationmode none
attr recordingmode count
attr source packetDropReasonIsNoCarrier(packetDropped)
attr title "packet drops: no carrier, count"
scalar V2VNetwork.node[1].lo[0] packetDropNoCarrier:sum(packetBytes) 0
attr interpolationmode none
attr recordingmode sum(packetBytes)
attr source packetDropReasonIsNoCarrier(packetDropped)
attr title "packet drops: no carrier, sum(packetBytes)"
par V2VNetwork.node[1].wlan[0].radioIn.channel typename "\"ned.IdealChannel\""
par V2VNetwork.node[1].wlan[0].llc.upperLayerOut.channel typename "\"ned.IdealChannel\""
par V2VNetwork.node[1].wlan[0].upperLayerIn.channel typename "\"ned.IdealChannel\""
par V2VNetwork.node[1].wlan[0].mib typename "\"inet.linklayer.ieee80211.mib.Ieee80211Mib\""
par V2VNetwork.node[1].wlan[0].llc typename "\"inet.linklayer.ieee80211.llc.Ieee80211LlcLpd\""
par V2VNetwork.node[1].wlan[0].llc registerProtocol false
par V2VNetwork.node[1].wlan[0].agent typename "\"inet.linklayer.ieee80211.mgmt.Ieee80211AgentSta\""
par V2VNetwork.node[1].wlan[0].agent interfaceTableModule "\"V2VNetwork.node[1].interfaceTable\""
par V2VNetwork.node[1].wlan[0].agent mibModule "\"V2VNetwork.node[1].wlan[0].mib\""
par V2VNetwork.node[1].wlan[0].agent activeScan true
par V2VNetwork.node[1].wlan[0].agent channelsToScan "\"\""
par V2VNetwork.node[1].wlan[0].agent probeDelay 0.1s
attr unit s
par V2VNetwork.node[1].wlan[0].agent minChannelTime 0.15s
attr unit s
par V2VNetwork.node[1].wlan[0].agent maxChannelTime 0.3s
attr unit s
par V2VNetwork.node[1].wlan[0].agent authenticationTimeout 5s
attr unit s
par V2VNetwork.node[1].wlan[0].agent associationTimeout 5s
attr unit s
par V2VNetwork.node[1].wlan[0].agent startingTime -1s
attr unit s
par V2VNetwork.node[1].wlan[0].agent defaultSsid "\"SSID\""
scalar V2VNetwork.node[1].wlan[0].agent dropConfirm:count 3
attr recordingmode count
attr title "dropped confirms, count"
scalar V2VNetwork.node[1].wlan[0].agent acceptConfirm:count 0
attr recordingmode count
attr title "accepted confirms, count"
scalar V2VNetwork.node[1].wlan[0].agent sentRequest:count 4
attr recordingmode count
attr title "sent requests, count"
par V2VNetwork.node[1].wlan[0].mgmt typename "\"inet.linklayer.ieee80211.mgmt.Ieee80211MgmtSta\""
par V2VNetwork.node[1].wlan[0].mgmt interfaceTableModule "\"V2VNetwork.node[1].interfaceTable\""
par V2VNetwork.node[1].wlan[0].mgmt numChannels 1
par V2VNetwork.node[1].wlan[0].mgmt mibModule "\"V2VNetwork.node[1].wlan[0].mib\""
par V2VNetwork.node[1].wlan[0].mgmt macModule "\"V2VNetwork.node[1].wlan[0].mac\""
par V2VNetwork.node[1].wlan[0].mac.dcf.channelAccess.pendingQueue typename "\"inet.linklayer.ieee80211.mac.queue.PendingQueue\""
par V2VNetwork.node[1].wlan[0].mac.dcf.channelAccess.pendingQueue displayStringTextFormat "\"contains %p pk (%l) pushed %u\\npulled %o removed %r dropped %d\""
par V2VNetwork.node[1].wlan[0].mac.dcf.channelAccess.pendingQueue packetCapacity 100
par V2VNetwork.node[1].wlan[0].mac.dcf.channelAccess.pendingQueue dataCapacity -1b
attr unit b
par V2VNetwork.node[1].wlan[0].mac.dcf.channelAccess.pendingQueue dropperClass "\"inet::queueing::PacketAtCollectionEndDropper\""
par V2VNetwork.node[1].wlan[0].mac.dcf.channelAccess.pendingQueue comparatorClass "\"inet::ieee80211::MgmtOverDataComparator\""
par V2VNetwork.node[1].wlan[0].mac.dcf.channelAccess.pendingQueue bufferModule "\"\""
scalar V2VNetwork.node[1].wlan[0].mac.dcf.channelAccess.pendingQueue queueLength:last 0
attr autoWarmupFilter false
attr interpolationmode sample-hold
attr recordingmode last
attr source "warmup(atomic(constant0(packetPushEnded) + count(packetPushStarted) - count(packetPulled) - count(packetRemoved) - count(packetDropped)))"
attr title "queue length, last"
attr unit pk
scalar V2VNetwork.node[1].wlan[0].mac.dcf.channelAccess.pendingQueue queueLength:max 1
attr autoWarmupFilter false
attr interpolationmode sample-hold
attr recordingmode max
attr source "warmup(atomic(constant0(packetPushEnded) + count(packetPushStarted) - count(packetPulled) - count(packetRemoved) - count(packetDropped)))"
attr title "queue length, max"
attr unit pk
scalar V2VNetwork.node[1].wlan[0].mac.dcf.channelAccess.pendingQueue queueLength:timeavg 0
attr autoWarmupFilter false
attr interpolationmode sample-hold
attr recordingmode timeavg
attr source "warmup(atomic(constant0(packetPushEnded) + count(packetPushStarted) - count(packetPulled) - count(packetRemoved) - count(packetDropped)))"
attr title "queue length, timeavg"
attr unit pk
scalar V2VNetwork.node[1].wlan[0].mac.dcf.channelAccess.pendingQueue queueBitLength:last 0
attr autoWarmupFilter false
attr interpolationmode sample-hold
attr recordingmode last
attr source "warmup(atomic(constant0(packetPushEnded) + sum(packetLength(packetPushStarted)) - sum(packetLength(packetPulled)) - sum(packetLength(packetRemoved)) - sum(packetLength(packetDropped))))"
attr title "queue bit length, last"
attr unit b
scalar V2VNetwork.node[1].wlan[0].mac.dcf.channelAccess.pendingQueue queueBitLength:max 256
attr autoWarmupFilter false
attr interpolationmode sample-hold
attr recordingmode max
attr source "warmup(atomic(constant0(packetPushEnded) + sum(packetLength(packetPushStarted)) - sum(packetLength(packetPulled)) - sum(packetLength(packetRemoved)) - sum(packetLength(packetDropped))))"
attr title "queue bit length, max"
attr unit b
scalar V2VNetwork.node[1].wlan[0].mac.dcf.channelAccess.pendingQueue queueBitLength:timeavg 0
attr autoWarmupFilter false
attr interpolationmode sample-hold
attr recordingmode timeavg
attr source "warmup(atomic(constant0(packetPushEnded) + sum(packetLength(packetPushStarted)) - sum(packetLength(packetPulled)) - sum(packetLength(packetRemoved)) - sum(packetLength(packetDropped))))"
attr title "queue bit length, timeavg"
attr unit b
statistic V2VNetwork.node[1].wlan[0].mac.dcf.channelAccess.pendingQueue queueingTime:histogram
field count 4
field mean 0
field stddev 0
field min 0
field max 0
field sum 0
field sqrsum 0
attr interpolationmode none
attr recordingmode histogram
attr source queueingTime(packetPulled)
attr title "queueing times"
attr unit s
bin	-inf	0
bin	-0.5	0
bin	-0.48	0
bin	-0.46	0
bin	-0.44	0
bin	-0.42	0
bin	-0.4	0
bin	-0.38	0
bin	-0.36	0
bin	-0.34	0
bin	-0.32	0
bin	-0.3	0
bin	-0.28	0
bin	-0.26	0
bin	-0.24	0
bin	-0.22	0
bin	-0.2	0
bin	-0.18	0
bin	-0.16	0
bin	-0.14	0
bin	-0.12	0
bin	-0.1	0
bin	-0.08	0
bin	-0.06	0
bin	-0.04	0
bin	-0.02	0
bin	0	4
bin	0.02	0
bin	0.04	0
bin	0.06	0
bin	0.08	0
bin	0.1	0
bin	0.12	0
bin	0.14	0
bin	0.16	0
bin	0.18	0
bin	0.2	0
bin	0.22	0
bin	0.24	0
bin	0.26	0
bin	0.28	0
bin	0.3	0
bin	0.32	0
bin	0.34	0
bin	0.36	0
bin	0.38	0
bin	0.4	0
bin	0.42	0
bin	0.44	0
bin	0.46	0
bin	0.48	0
bin	0.5	0
scalar V2VNetwork.node[1].wlan[0].mac.dcf.channelAccess.pendingQueue outgoingPackets:count 4
attr recordingmode count
attr source packetPulled
attr title "outgoing packets, count"
attr unit pk
scalar V2VNetwork.node[1].wlan[0].mac.dcf.channelAccess.pendingQueue outgoingPacketLengths:sum 1024
attr interpolationmode none
attr recordingmode sum
attr source packetLength(packetPulled)
attr title "outgoing packet lengths, sum"
attr unit b
statistic V2VNetwork.node[1].wlan[0].mac.dcf.channelAccess.pendingQueue outgoingPacketLengths:histogram
field count 4
field mean 256
field stddev 0
field min 256
field max 256
field sum 1024
field sqrsum 262144
attr interpolationmode none
attr recordingmode histogram
attr source packetLength(packetPulled)
attr title "outgoing packet lengths"
attr unit b
bin	-inf	0
bin	255	0
bin	256	4
bin	257	0
statistic V2VNetwork.node[1].wlan[0].mac.dcf.channelAccess.pendingQueue flowQueueingTime:histogram
field count 0
field mean -nan
field stddev nan
field min nan
field max nan
field sum 0
field sqrsum 0
attr interpolationmode none
attr recordingmode histogram
attr source queueingTime(demuxFlow(packetPulled))
attr title "flow queueing times"
attr unit s
bin	-inf	0
bin	0	0
bin	1	0
scalar V2VNetwork.node[1].wlan[0].mac.dcf.channelAccess.pendingQueue incomingPackets:count 4
[...]
par V2VNetwork.visualizer.canvasVisualizer.interfaceTableVisualizer visualizationTargetModule "\"^.^.^\""
par V2VNetwork.visualizer.canvasVisualizer.interfaceTableVisualizer visualizationSubjectModule "\"^.^.^\""
par V2VNetwork.visualizer.canvasVisualizer.interfaceTableVisualizer tags "\"\""
par V2VNetwork.visualizer.canvasVisualizer.interfaceTableVisualizer networkNodeVisualizerModule "\"^.networkNodeVisualizer\""
par V2VNetwork.visualizer.canvasVisualizer.interfaceTableVisualizer displayInterfaceTables false
par V2VNetwork.visualizer.canvasVisualizer.interfaceTableVisualizer displayWiredInterfacesAtConnections true
par V2VNetwork.visualizer.canvasVisualizer.interfaceTableVisualizer displayBackground false
par V2VNetwork.visualizer.canvasVisualizer.interfaceTableVisualizer nodeFilter "\"*\""
attr mutable ""
par V2VNetwork.visualizer.canvasVisualizer.interfaceTableVisualizer interfaceFilter "\"not(lo*)\""
attr mutable ""
par V2VNetwork.visualizer.canvasVisualizer.interfaceTableVisualizer format "\"%N %\\\\%a%/%l\""
attr mutable ""
par V2VNetwork.visualizer.canvasVisualizer.interfaceTableVisualizer placementHint "\"top\""
par V2VNetwork.visualizer.canvasVisualizer.interfaceTableVisualizer placementPriority 0
par V2VNetwork.visualizer.canvasVisualizer.interfaceTableVisualizer font "\"<default>\""
par V2VNetwork.visualizer.canvasVisualizer.interfaceTableVisualizer textColor "\"#005030\""
par V2VNetwork.visualizer.canvasVisualizer.interfaceTableVisualizer backgroundColor "\"white\""
par V2VNetwork.visualizer.canvasVisualizer.interfaceTableVisualizer opacity 1
par V2VNetwork.visualizer.canvasVisualizer.interfaceTableVisualizer zIndex 10
par V2VNetwork.visualizer.canvasVisualizer.dataLinkVisualizer typename "\"inet.visualizer.canvas.linklayer.DataLinkCanvasVisualizer\""
par V2VNetwork.visualizer.canvasVisualizer.dataLinkVisualizer visualizationTargetModule "\"^.^.^\""
par V2VNetwork.visualizer.canvasVisualizer.dataLinkVisualizer visualizationSubjectModule "\"^.^.^\""
par V2VNetwork.visualizer.canvasVisualizer.dataLinkVisualizer tags "\"\""
par V2VNetwork.visualizer.canvasVisualizer.dataLinkVisualizer displayLinks false
par V2VNetwork.visualizer.canvasVisualizer.dataLinkVisualizer activityLevel "\"service\""
attr enum service,peer,protocol
par V2VNetwork.visualizer.canvasVisualizer.dataLinkVisualizer nodeFilter "\"*\""
attr mutable ""
par V2VNetwork.visualizer.canvasVisualizer.dataLinkVisualizer interfaceFilter "\"*\""
attr mutable ""
par V2VNetwork.visualizer.canvasVisualizer.dataLinkVisualizer packetFilter "(omnetpp::cValueHolder)holder: \"*\""
attr mutable ""
par V2VNetwork.visualizer.canvasVisualizer.dataLinkVisualizer lineColor "\"darkcyan\""
par V2VNetwork.visualizer.canvasVisualizer.dataLinkVisualizer lineStyle "\"solid\""
par V2VNetwork.visualizer.canvasVisualizer.dataLinkVisualizer lineWidth 3
par V2VNetwork.visualizer.canvasVisualizer.dataLinkVisualizer lineShift 16
par V2VNetwork.visualizer.canvasVisualizer.dataLinkVisualizer lineShiftMode "\"normal\""
par V2VNetwork.visualizer.canvasVisualizer.dataLinkVisualizer lineContactSpacing 3
par V2VNetwork.visualizer.canvasVisualizer.dataLinkVisualizer lineContactMode "\"rectangular\""
attr enum circular,rectangular
par V2VNetwork.visualizer.canvasVisualizer.dataLinkVisualizer labelFormat "\"%n\""
par V2VNetwork.visualizer.canvasVisualizer.dataLinkVisualizer labelFont "\"<default>, 8px\""
par V2VNetwork.visualizer.canvasVisualizer.dataLinkVisualizer labelColor "\"darkcyan\""
par V2VNetwork.visualizer.canvasVisualizer.dataLinkVisualizer fadeOutMode "\"realTime\""
attr enum realTime,animationTime,simulationTime
par V2VNetwork.visualizer.canvasVisualizer.dataLinkVisualizer fadeOutTime 1s
attr unit s
par V2VNetwork.visualizer.canvasVisualizer.dataLinkVisualizer fadeOutAnimationSpeed 0
par V2VNetwork.visualizer.canvasVisualizer.dataLinkVisualizer holdAnimationTime 0s
attr unit s
par V2VNetwork.visualizer.canvasVisualizer.dataLinkVisualizer zIndex 2
par V2VNetwork.visualizer.canvasVisualizer.linkBreakVisualizer typename "\"inet.visualizer.canvas.linklayer.LinkBreakCanvasVisualizer\""
par V2VNetwork.visualizer.canvasVisualizer.linkBreakVisualizer visualizationTargetModule "\"^.^.^\""
par V2VNetwork.visualizer.canvasVisualizer.linkBreakVisualizer visualizationSubjectModule "\"^.^.^\""
par V2VNetwork.visualizer.canvasVisualizer.linkBreakVisualizer tags "\"\""
par V2VNetwork.visualizer.canvasVisualizer.linkBreakVisualizer displayLinkBreaks false
par V2VNetwork.visualizer.canvasVisualizer.linkBreakVisualizer nodeFilter "\"*\""
attr mutable ""
par V2VNetwork.visualizer.canvasVisualizer.linkBreakVisualizer interfaceFilter "\"*\""
attr mutable ""
par V2VNetwork.visualizer.canvasVisualizer.linkBreakVisualizer packetFilter "(omnetpp::cValueHolder)holder: \"*\""
attr mutable ""
par V2VNetwork.visualizer.canvasVisualizer.linkBreakVisualizer icon "\"status/stop\""
par V2VNetwork.visualizer.canvasVisualizer.linkBreakVisualizer iconTintAmount 0
par V2VNetwork.visualizer.canvasVisualizer.linkBreakVisualizer iconTintColor "\"\""
par V2VNetwork.visualizer.canvasVisualizer.linkBreakVisualizer fadeOutMode "\"realTime\""
attr enum realTime,animationTime,simulationTime
par V2VNetwork.visualizer.canvasVisualizer.linkBreakVisualizer fadeOutTime 1s
attr unit s
par V2VNetwork.visualizer.canvasVisualizer.linkBreakVisualizer fadeOutAnimationSpeed 0
par V2VNetwork.visualizer.canvasVisualizer.linkBreakVisualizer zIndex 2
par V2VNetwork.visualizer.canvasVisualizer.ieee80211Visualizer typename "\"inet.visualizer.canvas.linklayer.Ieee80211CanvasVisualizer\""
par V2VNetwork.visualizer.canvasVisualizer.ieee80211Visualizer visualizationTargetModule "\"^.^.^\""
par V2VNetwork.visualizer.canvasVisualizer.ieee80211Visualizer visualizationSubjectModule "\"^.^.^\""
par V2VNetwork.visualizer.canvasVisualizer.ieee80211Visualizer tags "\"\""
par V2VNetwork.visualizer.canvasVisualizer.ieee80211Visualizer networkNodeVisualizerModule "\"^.networkNodeVisualizer\""
par V2VNetwork.visualizer.canvasVisualizer.ieee80211Visualizer displayAssociations false
par V2VNetwork.visualizer.canvasVisualizer.ieee80211Visualizer nodeFilter "\"*\""
attr mutable ""
par V2VNetwork.visualizer.canvasVisualizer.ieee80211Visualizer interfaceFilter "\"*\""
attr mutable ""
par V2VNetwork.visualizer.canvasVisualizer.ieee80211Visualizer minPower -85dBm
attr unit dBm
par V2VNetwork.visualizer.canvasVisualizer.ieee80211Visualizer maxPower -50dBm
attr unit dBm
par V2VNetwork.visualizer.canvasVisualizer.ieee80211Visualizer icons "\"misc/signal_power_0 misc/signal_power_1 misc/signal_power_2 misc/signal_power_3\""
par V2VNetwork.visualizer.canvasVisualizer.ieee80211Visualizer iconColor "\"dark\""
par V2VNetwork.visualizer.canvasVisualizer.ieee80211Visualizer labelFont "\"<default>\""
par V2VNetwork.visualizer.canvasVisualizer.ieee80211Visualizer labelColor "\"black\""
par V2VNetwork.visualizer.canvasVisualizer.ieee80211Visualizer placementHint "\"top\""
par V2VNetwork.visualizer.canvasVisualizer.ieee80211Visualizer placementPriority 0
par V2VNetwork.visualizer.canvasVisualizer.ieee80211Visualizer zIndex 2
par V2VNetwork.visualizer.canvasVisualizer.networkRouteVisualizer typename "\"inet.visualizer.canvas.networklayer.NetworkRouteCanvasVisualizer\""
par V2VNetwork.visualizer.canvasVisualizer.networkRouteVisualizer visualizationTargetModule "\"^.^.^\""
par V2VNetwork.visualizer.canvasVisualizer.networkRouteVisualizer visualizationSubjectModule "\"^.^.^\""
par V2VNetwork.visualizer.canvasVisualizer.networkRouteVisualizer tags "\"\""
par V2VNetwork.visualizer.canvasVisualizer.networkRouteVisualizer displayRoutes false
par V2VNetwork.visualizer.canvasVisualizer.networkRouteVisualizer startPathSignal "\"packetReceivedFromUpper\""
par V2VNetwork.visualizer.canvasVisualizer.networkRouteVisualizer extendPathSignal "\"packetReceivedFromLower\""
par V2VNetwork.visualizer.canvasVisualizer.networkRouteVisualizer endPathSignal "\"packetSentToUpper\""
par V2VNetwork.visualizer.canvasVisualizer.networkRouteVisualizer nodeFilter "\"*\""
attr mutable ""
par V2VNetwork.visualizer.canvasVisualizer.networkRouteVisualizer packetFilter "(omnetpp::cValueHolder)holder: \"*\""
attr mutable ""
par V2VNetwork.visualizer.canvasVisualizer.networkRouteVisualizer lineColor "\"dark\""
par V2VNetwork.visualizer.canvasVisualizer.networkRouteVisualizer lineStyle "\"solid\""
par V2VNetwork.visualizer.canvasVisualizer.networkRouteVisualizer lineWidth 3
par V2VNetwork.visualizer.canvasVisualizer.networkRouteVisualizer lineSmooth false
par V2VNetwork.visualizer.canvasVisualizer.networkRouteVisualizer lineShift 16
par V2VNetwork.visualizer.canvasVisualizer.networkRouteVisualizer lineShiftMode "\"normal\""
par V2VNetwork.visualizer.canvasVisualizer.networkRouteVisualizer lineContactSpacing 3
par V2VNetwork.visualizer.canvasVisualizer.networkRouteVisualizer lineContactMode "\"rectangular\""
attr enum circular,rectangular
par V2VNetwork.visualizer.canvasVisualizer.networkRouteVisualizer labelFormat "\"%n\""
par V2VNetwork.visualizer.canvasVisualizer.networkRouteVisualizer labelFont "\"<default>, 8px\""
par V2VNetwork.visualizer.canvasVisualizer.networkRouteVisualizer labelColor "\"\""
par V2VNetwork.visualizer.canvasVisualizer.networkRouteVisualizer fadeOutMode "\"realTime\""
attr enum realTime,animationTime,simulationTime
par V2VNetwork.visualizer.canvasVisualizer.networkRouteVisualizer fadeOutTime 1s
attr unit s
par V2VNetwork.visualizer.canvasVisualizer.networkRouteVisualizer fadeOutAnimationSpeed 0
par V2VNetwork.visualizer.canvasVisualizer.networkRouteVisualizer zIndex 3
par V2VNetwork.visualizer.canvasVisualizer.routingTableVisualizer typename "\"inet.visualizer.canvas.networklayer.RoutingTableCanvasVisualizer\""
par V2VNetwork.visualizer.canvasVisualizer.routingTableVisualizer visualizationTargetModule "\"^.^.^\""
par V2VNetwork.visualizer.canvasVisualizer.routingTableVisualizer visualizationSubjectModule "\"^.^.^\""
par V2VNetwork.visualizer.canvasVisualizer.routingTableVisualizer tags "\"\""
par V2VNetwork.visualizer.canvasVisualizer.routingTableVisualizer displayRoutingTables false
par V2VNetwork.visualizer.canvasVisualizer.routingTableVisualizer displayRoutesIndividually true
par V2VNetwork.visualizer.canvasVisualizer.routingTableVisualizer displayLabels true
par V2VNetwork.visualizer.canvasVisualizer.routingTableVisualizer destinationFilter "\"*\""
attr mutable ""
par V2VNetwork.visualizer.canvasVisualizer.routingTableVisualizer nodeFilter "\"*\""
attr mutable ""
par V2VNetwork.visualizer.canvasVisualizer.routingTableVisualizer lineColor "\"black\""
par V2VNetwork.visualizer.canvasVisualizer.routingTableVisualizer lineStyle "\"solid\""
par V2VNetwork.visualizer.canvasVisualizer.routingTableVisualizer lineWidth 2
par V2VNetwork.visualizer.canvasVisualizer.routingTableVisualizer lineShift 16
par V2VNetwork.visualizer.canvasVisualizer.routingTableVisualizer lineShiftMode "\"normal\""
par V2VNetwork.visualizer.canvasVisualizer.routingTableVisualizer lineContactSpacing 3
par V2VNetwork.visualizer.canvasVisualizer.routingTableVisualizer lineContactMode "\"rectangular\""
attr enum circular,rectangular
par V2VNetwork.visualizer.canvasVisualizer.routingTableVisualizer labelFormat "\"%d/%m -> %g (%n)\""
attr mutable ""
par V2VNetwork.visualizer.canvasVisualizer.routingTableVisualizer labelFont "\"<default>, 8px\""
par V2VNetwork.visualizer.canvasVisualizer.routingTableVisualizer labelColor "\"black\""
par V2VNetwork.visualizer.canvasVisualizer.routingTableVisualizer zIndex 0
par V2VNetwork.visualizer.canvasVisualizer.transportRouteVisualizer typename "\"inet.visualizer.canvas.transportlayer.TransportRouteCanvasVisualizer\""
par V2VNetwork.visualizer.canvasVisualizer.transportRouteVisualizer visualizationTargetModule "\"^.^.^\""
par V2VNetwork.visualizer.canvasVisualizer.transportRouteVisualizer visualizationSubjectModule "\"^.^.^\""
par V2VNetwork.visualizer.canvasVisualizer.transportRouteVisualizer tags "\"\""
par V2VNetwork.visualizer.canvasVisualizer.transportRouteVisualizer displayRoutes false
par V2VNetwork.visualizer.canvasVisualizer.transportRouteVisualizer startPathSignal "\"packetReceivedFromUpper\""
par V2VNetwork.visualizer.canvasVisualizer.transportRouteVisualizer extendPathSignal "\"packetReceivedFromLower\""
par V2VNetwork.visualizer.canvasVisualizer.transportRouteVisualizer endPathSignal "\"packetSentToUpper\""
par V2VNetwork.visualizer.canvasVisualizer.transportRouteVisualizer nodeFilter "\"*\""
attr mutable ""
par V2VNetwork.visualizer.canvasVisualizer.transportRouteVisualizer packetFilter "(omnetpp::cValueHolder)holder: \"*\""
attr mutable ""
par V2VNetwork.visualizer.canvasVisualizer.transportRouteVisualizer lineColor "\"dark\""
par V2VNetwork.visualizer.canvasVisualizer.transportRouteVisualizer lineStyle "\"solid\""
par V2VNetwork.visualizer.canvasVisualizer.transportRouteVisualizer lineWidth 3
par V2VNetwork.visualizer.canvasVisualizer.transportRouteVisualizer lineSmooth false
par V2VNetwork.visualizer.canvasVisualizer.transportRouteVisualizer lineShift 16
par V2VNetwork.visualizer.canvasVisualizer.transportRouteVisualizer lineShiftMode "\"normal\""
par V2VNetwork.visualizer.canvasVisualizer.transportRouteVisualizer lineContactSpacing 3
par V2VNetwork.visualizer.canvasVisualizer.transportRouteVisualizer lineContactMode "\"rectangular\""
attr enum circular,rectangular
par V2VNetwork.visualizer.canvasVisualizer.transportRouteVisualizer labelFormat "\"%n\""
par V2VNetwork.visualizer.canvasVisualizer.transportRouteVisualizer labelFont "\"<default>, 8px\""
par V2VNetwork.visualizer.canvasVisualizer.transportRouteVisualizer labelColor "\"\""
par V2VNetwork.visualizer.canvasVisualizer.transportRouteVisualizer fadeOutMode "\"realTime\""
attr enum realTime,animationTime,simulationTime
par V2VNetwork.visualizer.canvasVisualizer.transportRouteVisualizer fadeOutTime 1s
attr unit s
par V2VNetwork.visualizer.canvasVisualizer.transportRouteVisualizer fadeOutAnimationSpeed 0
par V2VNetwork.visualizer.canvasVisualizer.transportRouteVisualizer zIndex 4
par V2VNetwork.visualizer.canvasVisualizer.transportConnectionVisualizer typename "\"inet.visualizer.canvas.transportlayer.TransportConnectionCanvasVisualizer\""
par V2VNetwork.visualizer.canvasVisualizer.transportConnectionVisualizer visualizationTargetModule "\"^.^.^\""
par V2VNetwork.visualizer.canvasVisualizer.transportConnectionVisualizer visualizationSubjectModule "\"^.^.^\""
par V2VNetwork.visualizer.canvasVisualizer.transportConnectionVisualizer tags "\"\""
par V2VNetwork.visualizer.canvasVisualizer.transportConnectionVisualizer networkNodeVisualizerModule "\"^.networkNodeVisualizer\""
par V2VNetwork.visualizer.canvasVisualizer.transportConnectionVisualizer displayTransportConnections false
par V2VNetwork.visualizer.canvasVisualizer.transportConnectionVisualizer sourceNodeFilter "\"*\""
attr mutable ""
par V2VNetwork.visualizer.canvasVisualizer.transportConnectionVisualizer sourcePortFilter "\"*\""
attr mutable ""
par V2VNetwork.visualizer.canvasVisualizer.transportConnectionVisualizer destinationNodeFilter "\"*\""
attr mutable ""
par V2VNetwork.visualizer.canvasVisualizer.transportConnectionVisualizer destinationPortFilter "\"*\""
attr mutable ""
par V2VNetwork.visualizer.canvasVisualizer.transportConnectionVisualizer icon "\"misc/marker_s\""
par V2VNetwork.visualizer.canvasVisualizer.transportConnectionVisualizer iconColor "\"dark\""
par V2VNetwork.visualizer.canvasVisualizer.transportConnectionVisualizer labelFont "\"<default>\""
par V2VNetwork.visualizer.canvasVisualizer.transportConnectionVisualizer labelColor "\"black\""
par V2VNetwork.visualizer.canvasVisualizer.transportConnectionVisualizer placementHint "\"top\""
par V2VNetwork.visualizer.canvasVisualizer.transportConnectionVisualizer placementPriority 0
par V2VNetwork.visualizer.canvasVisualizer.transportConnectionVisualizer zIndex 4
par V2VNetwork.visualizer.canvasVisualizer.failureProtectionConfigurationVisualizer typename "\"inet.visualizer.canvas.configurator.FailureProtectionConfigurationCanvasVisualizer\""
par V2VNetwork.visualizer.canvasVisualizer.failureProtectionConfigurationVisualizer visualizationTargetModule "\"^.^.^\""
par V2VNetwork.visualizer.canvasVisualizer.failureProtectionConfigurationVisualizer visualizationSubjectModule "\"^.^.^\""
par V2VNetwork.visualizer.canvasVisualizer.failureProtectionConfigurationVisualizer tags "\"\""
par V2VNetwork.visualizer.canvasVisualizer.failureProtectionConfigurationVisualizer displayTrees false
par V2VNetwork.visualizer.canvasVisualizer.failureProtectionConfigurationVisualizer lineColor "\"dark\""
par V2VNetwork.visualizer.canvasVisualizer.failureProtectionConfigurationVisualizer lineStyle "\"solid\""
par V2VNetwork.visualizer.canvasVisualizer.failureProtectionConfigurationVisualizer lineWidth 3
par V2VNetwork.visualizer.canvasVisualizer.failureProtectionConfigurationVisualizer lineSmooth false
par V2VNetwork.visualizer.canvasVisualizer.failureProtectionConfigurationVisualizer lineShift 16
par V2VNetwork.visualizer.canvasVisualizer.failureProtectionConfigurationVisualizer lineShiftMode "\"normal\""
par V2VNetwork.visualizer.canvasVisualizer.failureProtectionConfigurationVisualizer lineContactSpacing 3
par V2VNetwork.visualizer.canvasVisualizer.failureProtectionConfigurationVisualizer lineContactMode "\"rectangular\""
attr enum circular,rectangular
par V2VNetwork.visualizer.canvasVisualizer.failureProtectionConfigurationVisualizer failureProtectionConfiguratorModule "\"failureProtectionConfigurator\""
par V2VNetwork.visualizer.canvasVisualizer.failureProtectionConfigurationVisualizer streamFilter "\"*\""
par V2VNetwork.visualizer.canvasVisualizer.failureProtectionConfigurationVisualizer zIndex 3
par V2VNetwork.visualizer.canvasVisualizer.streamRedundancyConfigurationVisualizer typename "\"inet.visualizer.canvas.configurator.StreamRedundancyConfigurationCanvasVisualizer\""
par V2VNetwork.visualizer.canvasVisualizer.streamRedundancyConfigurationVisualizer visualizationTargetModule "\"^.^.^\""
par V2VNetwork.visualizer.canvasVisualizer.streamRedundancyConfigurationVisualizer visualizationSubjectModule "\"^.^.^\""
par V2VNetwork.visualizer.canvasVisualizer.streamRedundancyConfigurationVisualizer tags "\"\""
par V2VNetwork.visualizer.canvasVisualizer.streamRedundancyConfigurationVisualizer displayTrees false
par V2VNetwork.visualizer.canvasVisualizer.streamRedundancyConfigurationVisualizer lineColor "\"dark\""
par V2VNetwork.visualizer.canvasVisualizer.streamRedundancyConfigurationVisualizer lineStyle "\"solid\""
par V2VNetwork.visualizer.canvasVisualizer.streamRedundancyConfigurationVisualizer lineWidth 3
par V2VNetwork.visualizer.canvasVisualizer.streamRedundancyConfigurationVisualizer lineSmooth false
par V2VNetwork.visualizer.canvasVisualizer.streamRedundancyConfigurationVisualizer lineShift 16
par V2VNetwork.visualizer.canvasVisualizer.streamRedundancyConfigurationVisualizer lineShiftMode "\"normal\""
par V2VNetwork.visualizer.canvasVisualizer.streamRedundancyConfigurationVisualizer lineContactSpacing 3
par V2VNetwork.visualizer.canvasVisualizer.streamRedundancyConfigurationVisualizer lineContactMode "\"rectangular\""
attr enum circular,rectangular
par V2VNetwork.visualizer.canvasVisualizer.streamRedundancyConfigurationVisualizer streamRedundancyConfiguratorModule "\"streamRedundancyConfigurator\""
par V2VNetwork.visualizer.canvasVisualizer.streamRedundancyConfigurationVisualizer streamFilter "\"*\""
par V2VNetwork.visualizer.canvasVisualizer.streamRedundancyConfigurationVisualizer zIndex 3
par V2VNetwork.visualizer.canvasVisualizer typename "\"inet.visualizer.canvas.integrated.IntegratedCanvasVisualizer\""
par V2VNetwork.visualizer typename "\"inet.visualizer.common.IntegratedVisualizer\""
par V2VNetwork typename "\"v2v.simulations.v2v.V2VNetwork\""
par V2VNetwork numVehicles 10

