version 3
run V2VWorking-0-20251106-00:36:04-14021
attr configname V2VWorking
attr datetime 20251106-00:36:04
attr datetimef 20251106-003604
attr experiment V2VWorking
attr inifile omnetpp.ini
attr iterationvars ""
attr iterationvarsd ""
attr iterationvarsf ""
attr measurement ""
attr network V2VNetwork
attr processid 14021
attr repetition 0
attr replication #0
attr resultdir results
attr runnumber 0
attr seedset 0
config image-path ../../../../samples/inet4.5/images:../../../../samples/veins/images
config network V2VNetwork
config *.manager.updateInterval 0.1s
config *.manager.penetrationRate 1.0
config *.manager.port 9999
config *.manager.host "\"localhost\""
config *.manager.launchConfig "xmldoc(\"sumo.launchd.xml\")"
config *.manager.autoShutdown true
config *.manager.useGui true
config *.node[*].applType "\"MyVeinsApp\""
config *.node[*].appl.detectionEnabled true
config *.node[0..9].appl.malicious false
config *.node[0..9].appl.floodThreshold 3
config *.node[*].appl.beaconInterval 0.5s
config *.node[10..23].appl.malicious true
config *.node[10..23].appl.attackType "\"flood\""
config *.node[10..23].appl.attackInterval 2
config *.connectionManager.sendDirect true
config *.connectionManager.maxInterfDist 2600m
config *.**.nic.mac1609_4.txPower 20mW
config *.**.nic.mac1609_4.bitrate 6Mbps
config *.**.nic.phy80211p.sensitivity -89dBm
config *.**.nic.phy80211p.maxTXPower 100mW
config *.**.nic.phy80211p.minPowerLevel -110dBm
config *.**.nic.phy80211p.antenna "xmldoc(\"config.xml\")"
config *.node[*].nic.phy80211p.antennaOffsetZ 1.5m
config *.**.nic.phy80211p.analogueModels "xmldoc(\"config.xml\")"
config *.**.nic.phy80211p.decider "xmldoc(\"config.xml\")"
config *.**.nic.phy80211p.usePropagationDelay true
config *.node[*].veinsmobility.x 0
config *.node[*].veinsmobility.y 0
config *.node[*].veinsmobility.z 0
config *.**.nic.phy80211p.useNoiseFloor true
config *.**.nic.phy80211p.noiseFloor -98dBm
config *.**.nic.phy80211p.thermalNoise -110dBm
config *.**.nic.phy80211p.snrThreshold 4.0dB
config *.playgroundSizeX 6000m
config *.playgroundSizeY 6000m
config *.playgroundSizeZ 50m
config *.numRSUs 3
config *.rsu[*].applType "\"RSUApp\""
config *.rsu[*].appl.internetAddress "\"cloud-server.com\""
config *.rsu[*].appl.relayToInternet true
config *.rsu[*].appl.detectionEnabled true
config *.rsu[0].mobility.x -100
config *.rsu[0].mobility.y -100
config *.rsu[0].mobility.z 0
config *.rsu[1].mobility.x -500
config *.rsu[1].mobility.y -300
config *.rsu[1].mobility.z 0
config *.rsu[2].mobility.x -300
config *.rsu[2].mobility.y -500
config *.rsu[2].mobility.z 0
config *.rsu[*].nic.phy80211p.antennaOffsetZ 8m
config *.rsu[*].nic.mac1609_4.txPower 50mW
config *.rsu[*].nic.phy80211p.sensitivity -85dBm
config cmdenv-express-mode true
config record-eventlog false
config *.scalar-recording true
config *.vector-recording false
config *.param-recording false
config *.bin-recording false
config **.cmdenv-log-level INFO
config cmdenv-log-prefix false
config **.debug false
config **.verbose false
config sim-time-limit 50s

scalar V2VNetwork.rsu[0].appl messagesRelayedToInternet 1
scalar V2VNetwork.rsu[2].appl messagesRelayedToInternet 1
scalar V2VNetwork.rsu[0].appl messagesRelayedToInternet 2
scalar V2VNetwork.rsu[2].appl messagesRelayedToInternet 2
scalar V2VNetwork.rsu[0].appl messagesRelayedToInternet 3
scalar V2VNetwork.rsu[2].appl messagesRelayedToInternet 3
scalar V2VNetwork.rsu[2].appl messagesRelayedToInternet 4
scalar V2VNetwork.rsu[0].appl messagesRelayedToInternet 4
scalar V2VNetwork.rsu[2].appl messagesRelayedToInternet 5
scalar V2VNetwork.rsu[2].appl messagesRelayedToInternet 6
scalar V2VNetwork.rsu[0].appl messagesRelayedToInternet 5
scalar V2VNetwork.rsu[2].appl messagesRelayedToInternet 7
scalar V2VNetwork.rsu[0].appl messagesRelayedToInternet 6
scalar V2VNetwork.rsu[2].appl messagesRelayedToInternet 8
par V2VNetwork.node[20].appl typename "\"org.car2x.veins.modules.application.traci.MyVeinsApp\""
par V2VNetwork.node[20].appl headerLength 88bit
attr unit bit
par V2VNetwork.node[20].appl sendBeacons true
par V2VNetwork.node[20].appl beaconLengthBits 256bit
attr unit bit
par V2VNetwork.node[20].appl beaconUserPriority 7
par V2VNetwork.node[20].appl beaconInterval 0.5s
attr unit s
par V2VNetwork.node[20].appl dataLengthBits 1024bit
attr unit bit
par V2VNetwork.node[20].appl dataOnSch false
par V2VNetwork.node[20].appl dataUserPriority 7
par V2VNetwork.node[20].appl avoidBeaconSynchronization true
par V2VNetwork.node[20].appl sendWSA false
par V2VNetwork.node[20].appl wsaLengthBits 250bit
attr unit bit
par V2VNetwork.node[20].appl wsaInterval 1s
attr unit s
par V2VNetwork.node[20].appl appName "\"V2V Security App\""
par V2VNetwork.node[20].appl malicious true
par V2VNetwork.node[20].appl attackType "\"flood\""
par V2VNetwork.node[20].appl attackInterval 2
par V2VNetwork.node[20].appl detectionEnabled true
par V2VNetwork.node[20].appl floodThreshold 50
par V2VNetwork.node[20].appl severeFloodThreshold 100
par V2VNetwork.node[20].appl burstThreshold 200
par V2VNetwork.node[20].appl anomalyThreshold 2
par V2VNetwork.node[20].appl detectionWindow 3
par V2VNetwork.node[20].appl blacklistTimeout 30
par V2VNetwork.node[20].appl persistentFloodDuration 6
par V2VNetwork.node[20].appl maxBurstDuration 1
par V2VNetwork.node[20].appl maxMessageAge 5
par V2VNetwork.node[20].appl minBurstSize 50
par V2VNetwork.node[20].appl maxSuspicionLevel 3
par V2VNetwork.node[20].appl maxReasonableSpeed 50
par V2VNetwork.node[20].appl entropyBasedDetection true
par V2VNetwork.node[20].appl messageValidation true
par V2VNetwork.node[20].appl totalAttackers 8
par V2VNetwork.node[20].appl totalDefenders 21
scalar V2VNetwork.node[20].appl generatedWSMs 28
scalar V2VNetwork.node[20].appl receivedWSMs 0
scalar V2VNetwork.node[20].appl generatedBSMs 0
scalar V2VNetwork.node[20].appl receivedBSMs 0
scalar V2VNetwork.node[20].appl generatedWSAs 0
scalar V2VNetwork.node[20].appl receivedWSAs 0
par V2VNetwork.node[20].nic.phy80211p typename "\"org.car2x.veins.modules.phy.PhyLayer80211p\""
par V2VNetwork.node[20].nic.phy80211p recordStats false
par V2VNetwork.node[20].nic.phy80211p usePropagationDelay true
par V2VNetwork.node[20].nic.phy80211p noiseFloor -98dBm
attr unit dBm
par V2VNetwork.node[20].nic.phy80211p useNoiseFloor true
par V2VNetwork.node[20].nic.phy80211p antenna "<root>...</root> at /home/lokesh/Downloads/omnetpp-6.2.0/minorproject/v2v/simulations/v2v//config.xml:34"
par V2VNetwork.node[20].nic.phy80211p antennaOffsetX 0m
attr unit m
par V2VNetwork.node[20].nic.phy80211p antennaOffsetY 0m
attr unit m
par V2VNetwork.node[20].nic.phy80211p antennaOffsetZ 1.5m
attr unit m
par V2VNetwork.node[20].nic.phy80211p antennaOffsetYaw 0rad
attr unit rad
par V2VNetwork.node[20].nic.phy80211p analogueModels "<root>...</root> at /home/lokesh/Downloads/omnetpp-6.2.0/minorproject/v2v/simulations/v2v//config.xml:34"
par V2VNetwork.node[20].nic.phy80211p decider "<root>...</root> at /home/lokesh/Downloads/omnetpp-6.2.0/minorproject/v2v/simulations/v2v//config.xml:34"
par V2VNetwork.node[20].nic.phy80211p minPowerLevel -110dBm
attr unit dBm
par V2VNetwork.node[20].nic.phy80211p timeRXToTX 0s
attr unit s
par V2VNetwork.node[20].nic.phy80211p timeRXToSleep 0s
attr unit s
par V2VNetwork.node[20].nic.phy80211p timeTXToRX 0s
attr unit s
par V2VNetwork.node[20].nic.phy80211p timeTXToSleep 0s
attr unit s
par V2VNetwork.node[20].nic.phy80211p timeSleepToRX 0s
attr unit s
par V2VNetwork.node[20].nic.phy80211p timeSleepToTX 0s
attr unit s
par V2VNetwork.node[20].nic.phy80211p initialRadioState 0
par V2VNetwork.node[20].nic.phy80211p radioMinAtt 1
par V2VNetwork.node[20].nic.phy80211p radioMaxAtt 0
par V2VNetwork.node[20].nic.phy80211p nbRadioChannels 1
par V2VNetwork.node[20].nic.phy80211p initialRadioChannel 0
par V2VNetwork.node[20].nic.phy80211p ccaThreshold -65dBm
attr unit dBm
par V2VNetwork.node[20].nic.phy80211p collectCollisionStatistics false
par V2VNetwork.node[20].nic.phy80211p allowTxDuringRx false
scalar V2VNetwork.node[20].nic.phy80211p busyTime 0.008987
par V2VNetwork.node[20].nic.mac1609_4 typename "\"org.car2x.veins.modules.mac.ieee80211p.Mac1609_4\""
par V2VNetwork.node[20].nic.mac1609_4 notAffectedByHostState false
par V2VNetwork.node[20].nic.mac1609_4 headerLength 0bit
attr unit bit
par V2VNetwork.node[20].nic.mac1609_4 address "\"auto\""
par V2VNetwork.node[20].nic.mac1609_4 useServiceChannel true
par V2VNetwork.node[20].nic.mac1609_4 serviceChannel 1
par V2VNetwork.node[20].nic.mac1609_4 bitrate 6000000bps
attr unit bps
par V2VNetwork.node[20].nic.mac1609_4 syncOffset 0.0003s
attr unit s
par V2VNetwork.node[20].nic.mac1609_4 txPower 20mW
attr unit mW
par V2VNetwork.node[20].nic.mac1609_4 queueSize 0
par V2VNetwork.node[20].nic.mac1609_4 dot11RTSThreshold 12000bit
attr unit bit
par V2VNetwork.node[20].nic.mac1609_4 dot11ShortRetryLimit 7
par V2VNetwork.node[20].nic.mac1609_4 dot11LongRetryLimit 4
par V2VNetwork.node[20].nic.mac1609_4 ackLength 112bit
attr unit bit
par V2VNetwork.node[20].nic.mac1609_4 useAcks false
par V2VNetwork.node[20].nic.mac1609_4 frameErrorRate 0
par V2VNetwork.node[20].nic.mac1609_4 ackErrorRate 0
scalar V2VNetwork.node[20].nic.mac1609_4 ReceivedUnicastPackets 0
scalar V2VNetwork.node[20].nic.mac1609_4 ReceivedBroadcasts 89
scalar V2VNetwork.node[20].nic.mac1609_4 SentPackets 23
scalar V2VNetwork.node[20].nic.mac1609_4 SentAcknowledgements 0
scalar V2VNetwork.node[20].nic.mac1609_4 RetriesExceeded 0
scalar V2VNetwork.node[20].nic.mac1609_4 SNIRLostPackets 248
scalar V2VNetwork.node[20].nic.mac1609_4 RXTXLostPackets 84
scalar V2VNetwork.node[20].nic.mac1609_4 TotalLostPackets 332
scalar V2VNetwork.node[20].nic.mac1609_4 DroppedPacketsInMac 0
scalar V2VNetwork.node[20].nic.mac1609_4 TooLittleTime 0
scalar V2VNetwork.node[20].nic.mac1609_4 TimesIntoBackoff 34
scalar V2VNetwork.node[20].nic.mac1609_4 SlotsBackoff 36
scalar V2VNetwork.node[20].nic.mac1609_4 NumInternalContention 0
scalar V2VNetwork.node[20].nic.mac1609_4 totalBusyTime 0.045958698894
scalar V2VNetwork.node[20].nic.mac1609_4 retriesExceeded:count 0
attr recordingmode count
attr source org_car2x_veins_modules_mac_sigRetriesExceeded
scalar V2VNetwork.node[20].nic.mac1609_4 sentAcks:count 0
attr recordingmode count
attr source org_car2x_veins_modules_mac_sigSentAck
scalar V2VNetwork.node[20].nic.mac1609_4 sentPackets:count 23
attr recordingmode count
attr source org_car2x_veins_modules_mac_sigSentPacket
scalar V2VNetwork.node[20].nic.mac1609_4 collisions:count 0
attr recordingmode count
attr source org_car2x_veins_modules_mac_sigCollision
scalar V2VNetwork.node[20].nic.mac1609_4 channelBusy:timeavg 0.00566383736175
attr recordingmode timeavg
attr source org_car2x_veins_modules_mac_sigChannelBusy
par V2VNetwork.node[20].nic typename "\"org.car2x.veins.modules.nic.Nic80211p\""
par V2VNetwork.node[20].nic connectionManagerName "\"connectionManager\""
par V2VNetwork.node[20].veinsmobility typename "\"org.car2x.veins.modules.mobility.traci.TraCIMobility\""
par V2VNetwork.node[20].veinsmobility notAffectedByHostState true
par V2VNetwork.node[20].veinsmobility x 0
par V2VNetwork.node[20].veinsmobility y 0
par V2VNetwork.node[20].veinsmobility z 0
par V2VNetwork.node[20].veinsmobility xOrientation 1
par V2VNetwork.node[20].veinsmobility yOrientation 0
par V2VNetwork.node[20].veinsmobility zOrientation 0
par V2VNetwork.node[20].veinsmobility hostPositionOffset 0m
attr unit m
par V2VNetwork.node[20].veinsmobility setHostSpeed false
par V2VNetwork.node[20].veinsmobility accidentCount 0
par V2VNetwork.node[20].veinsmobility accidentStart 33.5618s
attr unit s
par V2VNetwork.node[20].veinsmobility accidentDuration "uniform(30s, 60s)"
attr unit s
par V2VNetwork.node[20].veinsmobility accidentInterval "uniform(30s, 60s)"
attr unit s
scalar V2VNetwork.node[20].veinsmobility startTime 0.1
scalar V2VNetwork.node[20].veinsmobility totalTime 7.9
scalar V2VNetwork.node[20].veinsmobility stopTime 8.1
scalar V2VNetwork.node[20].veinsmobility minSpeed 0
scalar V2VNetwork.node[20].veinsmobility maxSpeed 9.8357640556116
scalar V2VNetwork.node[20].veinsmobility totalDistance 37.632937465221
scalar V2VNetwork.node[20].veinsmobility totalCO2Emission 25.667548599772
par V2VNetwork.node[20] typename "\"org.car2x.veins.nodes.Car\""
par V2VNetwork.node[20] applType "\"MyVeinsApp\""
par V2VNetwork.node[20] nicType "\"Nic80211p\""
par V2VNetwork.node[20] veinsmobilityType "\"org.car2x.veins.modules.mobility.traci.TraCIMobility\""
scalar V2VNetwork.rsu[0].appl messagesRelayedToInternet 7
scalar V2VNetwork.rsu[2].appl messagesRelayedToInternet 9
scalar V2VNetwork.rsu[0].appl messagesRelayedToInternet 8
scalar V2VNetwork.rsu[0].appl messagesRelayedToInternet 9
scalar V2VNetwork.rsu[2].appl messagesRelayedToInternet 10
scalar V2VNetwork.rsu[0].appl messagesRelayedToInternet 10
scalar V2VNetwork.rsu[2].appl messagesRelayedToInternet 11
scalar V2VNetwork.rsu[0].appl messagesRelayedToInternet 11
scalar V2VNetwork.rsu[2].appl messagesRelayedToInternet 12
scalar V2VNetwork.rsu[0].appl messagesRelayedToInternet 12
scalar V2VNetwork.rsu[2].appl messagesRelayedToInternet 13
scalar V2VNetwork.rsu[0].appl messagesRelayedToInternet 13
scalar V2VNetwork.rsu[2].appl messagesRelayedToInternet 14
scalar V2VNetwork.rsu[0].appl messagesRelayedToInternet 14
scalar V2VNetwork.rsu[2].appl messagesRelayedToInternet 15
scalar V2VNetwork.rsu[0].appl messagesRelayedToInternet 15
scalar V2VNetwork.rsu[2].appl messagesRelayedToInternet 16
scalar V2VNetwork.rsu[0].appl messagesRelayedToInternet 16
scalar V2VNetwork.rsu[2].appl messagesRelayedToInternet 17
scalar V2VNetwork.rsu[0].appl messagesRelayedToInternet 17
scalar V2VNetwork.rsu[2].appl messagesRelayedToInternet 18
scalar V2VNetwork.rsu[0].appl messagesRelayedToInternet 18
scalar V2VNetwork.rsu[2].appl messagesRelayedToInternet 19
scalar V2VNetwork.rsu[0].appl messagesRelayedToInternet 19
scalar V2VNetwork.rsu[0].appl messagesRelayedToInternet 20
scalar V2VNetwork.rsu[2].appl messagesRelayedToInternet 20
scalar V2VNetwork.rsu[0].appl messagesRelayedToInternet 21
scalar V2VNetwork.rsu[2].appl messagesRelayedToInternet 21
scalar V2VNetwork.rsu[0].appl messagesRelayedToInternet 22
scalar V2VNetwork.rsu[2].appl messagesRelayedToInternet 22
scalar V2VNetwork.rsu[0].appl messagesRelayedToInternet 23
scalar V2VNetwork.rsu[2].appl messagesRelayedToInternet 23
scalar V2VNetwork.rsu[0].appl messagesRelayedToInternet 24
scalar V2VNetwork.rsu[2].appl messagesRelayedToInternet 24
scalar V2VNetwork.rsu[0].appl messagesRelayedToInternet 25
scalar V2VNetwork.rsu[2].appl messagesRelayedToInternet 25
scalar V2VNetwork.rsu[2].appl messagesRelayedToInternet 26
scalar V2VNetwork.rsu[0].appl messagesRelayedToInternet 26
scalar V2VNetwork.rsu[0].appl messagesRelayedToInternet 27
scalar V2VNetwork.rsu[2].appl messagesRelayedToInternet 27
scalar V2VNetwork.rsu[0].appl messagesRelayedToInternet 28
scalar V2VNetwork.rsu[2].appl messagesRelayedToInternet 28
scalar V2VNetwork.rsu[0].appl messagesRelayedToInternet 29
scalar V2VNetwork.rsu[2].appl messagesRelayedToInternet 29
scalar V2VNetwork.rsu[0].appl messagesRelayedToInternet 30
scalar V2VNetwork.rsu[2].appl messagesRelayedToInternet 30
scalar V2VNetwork.rsu[0].appl messagesRelayedToInternet 31
scalar V2VNetwork.rsu[2].appl messagesRelayedToInternet 31
scalar V2VNetwork.rsu[0].appl messagesRelayedToInternet 32
scalar V2VNetwork.rsu[2].appl messagesRelayedToInternet 32
scalar V2VNetwork.rsu[0].appl messagesRelayedToInternet 33
scalar V2VNetwork.rsu[2].appl messagesRelayedToInternet 33
par V2VNetwork.node[22].appl typename "\"org.car2x.veins.modules.application.traci.MyVeinsApp\""
par V2VNetwork.node[22].appl headerLength 88bit
attr unit bit
par V2VNetwork.node[22].appl sendBeacons true
par V2VNetwork.node[22].appl beaconLengthBits 256bit
attr unit bit
par V2VNetwork.node[22].appl beaconUserPriority 7
par V2VNetwork.node[22].appl beaconInterval 0.5s
attr unit s
par V2VNetwork.node[22].appl dataLengthBits 1024bit
attr unit bit
par V2VNetwork.node[22].appl dataOnSch false
par V2VNetwork.node[22].appl dataUserPriority 7
par V2VNetwork.node[22].appl avoidBeaconSynchronization true
par V2VNetwork.node[22].appl sendWSA false
par V2VNetwork.node[22].appl wsaLengthBits 250bit
attr unit bit
par V2VNetwork.node[22].appl wsaInterval 1s
attr unit s
par V2VNetwork.node[22].appl appName "\"V2V Security App\""
par V2VNetwork.node[22].appl malicious true
par V2VNetwork.node[22].appl attackType "\"flood\""
par V2VNetwork.node[22].appl attackInterval 2
par V2VNetwork.node[22].appl detectionEnabled true
par V2VNetwork.node[22].appl floodThreshold 50
par V2VNetwork.node[22].appl severeFloodThreshold 100
par V2VNetwork.node[22].appl burstThreshold 200
par V2VNetwork.node[22].appl anomalyThreshold 2
par V2VNetwork.node[22].appl detectionWindow 3
par V2VNetwork.node[22].appl blacklistTimeout 30
par V2VNetwork.node[22].appl persistentFloodDuration 6
par V2VNetwork.node[22].appl maxBurstDuration 1
par V2VNetwork.node[22].appl maxMessageAge 5
par V2VNetwork.node[22].appl minBurstSize 50
par V2VNetwork.node[22].appl maxSuspicionLevel 3
par V2VNetwork.node[22].appl maxReasonableSpeed 50
par V2VNetwork.node[22].appl entropyBasedDetection true
par V2VNetwork.node[22].appl messageValidation true
par V2VNetwork.node[22].appl totalAttackers 8
par V2VNetwork.node[22].appl totalDefenders 21
scalar V2VNetwork.node[22].appl generatedWSMs 127
scalar V2VNetwork.node[22].appl receivedWSMs 0
scalar V2VNetwork.node[22].appl generatedBSMs 0
scalar V2VNetwork.node[22].appl receivedBSMs 0
scalar V2VNetwork.node[22].appl generatedWSAs 0
scalar V2VNetwork.node[22].appl receivedWSAs 0
par V2VNetwork.node[22].nic.phy80211p typename "\"org.car2x.veins.modules.phy.PhyLayer80211p\""
par V2VNetwork.node[22].nic.phy80211p recordStats false
par V2VNetwork.node[22].nic.phy80211p usePropagationDelay true
par V2VNetwork.node[22].nic.phy80211p noiseFloor -98dBm
attr unit dBm
par V2VNetwork.node[22].nic.phy80211p useNoiseFloor true
par V2VNetwork.node[22].nic.phy80211p antenna "<root>...</root> at /home/lokesh/Downloads/omnetpp-6.2.0/minorproject/v2v/simulations/v2v//config.xml:34"
par V2VNetwork.node[22].nic.phy80211p antennaOffsetX 0m
attr unit m
par V2VNetwork.node[22].nic.phy80211p antennaOffsetY 0m
attr unit m
par V2VNetwork.node[22].nic.phy80211p antennaOffsetZ 1.5m
attr unit m
par V2VNetwork.node[22].nic.phy80211p antennaOffsetYaw 0rad
attr unit rad
par V2VNetwork.node[22].nic.phy80211p analogueModels "<root>...</root> at /home/lokesh/Downloads/omnetpp-6.2.0/minorproject/v2v/simulations/v2v//config.xml:34"
par V2VNetwork.node[22].nic.phy80211p decider "<root>...</root> at /home/lokesh/Downloads/omnetpp-6.2.0/minorproject/v2v/simulations/v2v//config.xml:34"
par V2VNetwork.node[22].nic.phy80211p minPowerLevel -110dBm
attr unit dBm
par V2VNetwork.node[22].nic.phy80211p timeRXToTX 0s
attr unit s
par V2VNetwork.node[22].nic.phy80211p timeRXToSleep 0s
attr unit s
par V2VNetwork.node[22].nic.phy80211p timeTXToRX 0s
attr unit s
par V2VNetwork.node[22].nic.phy80211p timeTXToSleep 0s
attr unit s
par V2VNetwork.node[22].nic.phy80211p timeSleepToRX 0s
attr unit s
par V2VNetwork.node[22].nic.phy80211p timeSleepToTX 0s
attr unit s
par V2VNetwork.node[22].nic.phy80211p initialRadioState 0
par V2VNetwork.node[22].nic.phy80211p radioMinAtt 1
par V2VNetwork.node[22].nic.phy80211p radioMaxAtt 0
par V2VNetwork.node[22].nic.phy80211p nbRadioChannels 1
par V2VNetwork.node[22].nic.phy80211p initialRadioChannel 0
par V2VNetwork.node[22].nic.phy80211p ccaThreshold -65dBm
attr unit dBm
par V2VNetwork.node[22].nic.phy80211p collectCollisionStatistics false
par V2VNetwork.node[22].nic.phy80211p allowTxDuringRx false
scalar V2VNetwork.node[22].nic.phy80211p busyTime 0.010064432432432
par V2VNetwork.node[22].nic.mac1609_4 typename "\"org.car2x.veins.modules.mac.ieee80211p.Mac1609_4\""
par V2VNetwork.node[22].nic.mac1609_4 notAffectedByHostState false
par V2VNetwork.node[22].nic.mac1609_4 headerLength 0bit
attr unit bit
par V2VNetwork.node[22].nic.mac1609_4 address "\"auto\""
par V2VNetwork.node[22].nic.mac1609_4 useServiceChannel true
par V2VNetwork.node[22].nic.mac1609_4 serviceChannel 1
par V2VNetwork.node[22].nic.mac1609_4 bitrate 6000000bps
attr unit bps
par V2VNetwork.node[22].nic.mac1609_4 syncOffset 0.0003s
attr unit s
par V2VNetwork.node[22].nic.mac1609_4 txPower 20mW
attr unit mW
par V2VNetwork.node[22].nic.mac1609_4 queueSize 0
par V2VNetwork.node[22].nic.mac1609_4 dot11RTSThreshold 12000bit
attr unit bit
par V2VNetwork.node[22].nic.mac1609_4 dot11ShortRetryLimit 7
par V2VNetwork.node[22].nic.mac1609_4 dot11LongRetryLimit 4
par V2VNetwork.node[22].nic.mac1609_4 ackLength 112bit
attr unit bit
par V2VNetwork.node[22].nic.mac1609_4 useAcks false
par V2VNetwork.node[22].nic.mac1609_4 frameErrorRate 0
par V2VNetwork.node[22].nic.mac1609_4 ackErrorRate 0
scalar V2VNetwork.node[22].nic.mac1609_4 ReceivedUnicastPackets 0
scalar V2VNetwork.node[22].nic.mac1609_4 ReceivedBroadcasts 464
scalar V2VNetwork.node[22].nic.mac1609_4 SentPackets 127
scalar V2VNetwork.node[22].nic.mac1609_4 SentAcknowledgements 0
scalar V2VNetwork.node[22].nic.mac1609_4 RetriesExceeded 0
scalar V2VNetwork.node[22].nic.mac1609_4 SNIRLostPackets 1260
scalar V2VNetwork.node[22].nic.mac1609_4 RXTXLostPackets 372
scalar V2VNetwork.node[22].nic.mac1609_4 TotalLostPackets 1632
scalar V2VNetwork.node[22].nic.mac1609_4 DroppedPacketsInMac 0
scalar V2VNetwork.node[22].nic.mac1609_4 TooLittleTime 18
scalar V2VNetwork.node[22].nic.mac1609_4 TimesIntoBackoff 170
scalar V2VNetwork.node[22].nic.mac1609_4 SlotsBackoff 147
scalar V2VNetwork.node[22].nic.mac1609_4 NumInternalContention 0
scalar V2VNetwork.node[22].nic.mac1609_4 totalBusyTime 0.221527089271
scalar V2VNetwork.node[22].nic.mac1609_4 retriesExceeded:count 0
attr recordingmode count
attr source org_car2x_veins_modules_mac_sigRetriesExceeded
scalar V2VNetwork.node[22].nic.mac1609_4 sentAcks:count 0
attr recordingmode count
attr source org_car2x_veins_modules_mac_sigSentAck
scalar V2VNetwork.node[22].nic.mac1609_4 sentPackets:count 127
attr recordingmode count
attr source org_car2x_veins_modules_mac_sigSentPacket
scalar V2VNetwork.node[22].nic.mac1609_4 collisions:count 0
attr recordingmode count
attr source org_car2x_veins_modules_mac_sigCollision
scalar V2VNetwork.node[22].nic.mac1609_4 channelBusy:timeavg 0.0059872186289458
attr recordingmode timeavg
attr source org_car2x_veins_modules_mac_sigChannelBusy
par V2VNetwork.node[22].nic typename "\"org.car2x.veins.modules.nic.Nic80211p\""
par V2VNetwork.node[22].nic connectionManagerName "\"connectionManager\""
par V2VNetwork.node[22].veinsmobility typename "\"org.car2x.veins.modules.mobility.traci.TraCIMobility\""
par V2VNetwork.node[22].veinsmobility notAffectedByHostState true
par V2VNetwork.node[22].veinsmobility x 0
par V2VNetwork.node[22].veinsmobility y 0
par V2VNetwork.node[22].veinsmobility z 0
par V2VNetwork.node[22].veinsmobility xOrientation 1
par V2VNetwork.node[22].veinsmobility yOrientation 0
par V2VNetwork.node[22].veinsmobility zOrientation 0
par V2VNetwork.node[22].veinsmobility hostPositionOffset 0m
attr unit m
par V2VNetwork.node[22].veinsmobility setHostSpeed false
par V2VNetwork.node[22].veinsmobility accidentCount 0
par V2VNetwork.node[22].veinsmobility accidentStart 45.6974s
attr unit s
par V2VNetwork.node[22].veinsmobility accidentDuration "uniform(30s, 60s)"
attr unit s
par V2VNetwork.node[22].veinsmobility accidentInterval "uniform(30s, 60s)"
attr unit s
scalar V2VNetwork.node[22].veinsmobility startTime 0.1
scalar V2VNetwork.node[22].veinsmobility totalTime 36.9
scalar V2VNetwork.node[22].veinsmobility stopTime 37.1
scalar V2VNetwork.node[22].veinsmobility minSpeed 0
scalar V2VNetwork.node[22].veinsmobility maxSpeed 19.353747099766
scalar V2VNetwork.node[22].veinsmobility totalDistance 389.19966337483
scalar V2VNetwork.node[22].veinsmobility totalCO2Emission 157.81727518347
par V2VNetwork.node[22] typename "\"org.car2x.veins.nodes.Car\""
par V2VNetwork.node[22] applType "\"MyVeinsApp\""
par V2VNetwork.node[22] nicType "\"Nic80211p\""
par V2VNetwork.node[22] veinsmobilityType "\"org.car2x.veins.modules.mobility.traci.TraCIMobility\""
scalar V2VNetwork.rsu[0].appl messagesRelayedToInternet 34
scalar V2VNetwork.rsu[2].appl messagesRelayedToInternet 34
scalar V2VNetwork.rsu[0].appl messagesRelayedToInternet 35
scalar V2VNetwork.rsu[2].appl messagesRelayedToInternet 35
scalar V2VNetwork.rsu[0].appl messagesRelayedToInternet 36
scalar V2VNetwork.rsu[2].appl messagesRelayedToInternet 36
scalar V2VNetwork.rsu[0].appl messagesRelayedToInternet 37
scalar V2VNetwork.rsu[2].appl messagesRelayedToInternet 37
scalar V2VNetwork.rsu[0].appl messagesRelayedToInternet 38
scalar V2VNetwork.rsu[2].appl messagesRelayedToInternet 38
scalar V2VNetwork.rsu[0].appl messagesRelayedToInternet 39
scalar V2VNetwork.rsu[2].appl messagesRelayedToInternet 39
scalar V2VNetwork.rsu[2].appl messagesRelayedToInternet 40
scalar V2VNetwork.rsu[0].appl messagesRelayedToInternet 40
scalar V2VNetwork.rsu[2].appl messagesRelayedToInternet 41
scalar V2VNetwork.rsu[0].appl messagesRelayedToInternet 41
scalar V2VNetwork.rsu[2].appl messagesRelayedToInternet 42
scalar V2VNetwork.rsu[0].appl messagesRelayedToInternet 42
scalar V2VNetwork.rsu[2].appl messagesRelayedToInternet 43
par V2VNetwork.node[14].appl typename "\"org.car2x.veins.modules.application.traci.MyVeinsApp\""
par V2VNetwork.node[14].appl headerLength 88bit
attr unit bit
par V2VNetwork.node[14].appl sendBeacons true
par V2VNetwork.node[14].appl beaconLengthBits 256bit
attr unit bit
par V2VNetwork.node[14].appl beaconUserPriority 7
par V2VNetwork.node[14].appl beaconInterval 0.5s
attr unit s
par V2VNetwork.node[14].appl dataLengthBits 1024bit
attr unit bit
par V2VNetwork.node[14].appl dataOnSch false
par V2VNetwork.node[14].appl dataUserPriority 7
par V2VNetwork.node[14].appl avoidBeaconSynchronization true
par V2VNetwork.node[14].appl sendWSA false
par V2VNetwork.node[14].appl wsaLengthBits 250bit
attr unit bit
par V2VNetwork.node[14].appl wsaInterval 1s
attr unit s
par V2VNetwork.node[14].appl appName "\"V2V Security App\""
par V2VNetwork.node[14].appl malicious true
par V2VNetwork.node[14].appl attackType "\"flood\""
par V2VNetwork.node[14].appl attackInterval 2
par V2VNetwork.node[14].appl detectionEnabled true
par V2VNetwork.node[14].appl floodThreshold 50
par V2VNetwork.node[14].appl severeFloodThreshold 100
par V2VNetwork.node[14].appl burstThreshold 200
par V2VNetwork.node[14].appl anomalyThreshold 2
par V2VNetwork.node[14].appl detectionWindow 3
par V2VNetwork.node[14].appl blacklistTimeout 30
par V2VNetwork.node[14].appl persistentFloodDuration 6
par V2VNetwork.node[14].appl maxBurstDuration 1
par V2VNetwork.node[14].appl maxMessageAge 5
par V2VNetwork.node[14].appl minBurstSize 50
par V2VNetwork.node[14].appl maxSuspicionLevel 3
par V2VNetwork.node[14].appl maxReasonableSpeed 50
par V2VNetwork.node[14].appl entropyBasedDetection true
par V2VNetwork.node[14].appl messageValidation true
par V2VNetwork.node[14].appl totalAttackers 8
par V2VNetwork.node[14].appl totalDefenders 21
scalar V2VNetwork.node[14].appl generatedWSMs 162
scalar V2VNetwork.node[14].appl receivedWSMs 0
scalar V2VNetwork.node[14].appl generatedBSMs 0
scalar V2VNetwork.node[14].appl receivedBSMs 0
scalar V2VNetwork.node[14].appl generatedWSAs 0
scalar V2VNetwork.node[14].appl receivedWSAs 0
par V2VNetwork.node[14].nic.phy80211p typename "\"org.car2x.veins.modules.phy.PhyLayer80211p\""
par V2VNetwork.node[14].nic.phy80211p recordStats false
par V2VNetwork.node[14].nic.phy80211p usePropagationDelay true
par V2VNetwork.node[14].nic.phy80211p noiseFloor -98dBm
attr unit dBm
par V2VNetwork.node[14].nic.phy80211p useNoiseFloor true
par V2VNetwork.node[14].nic.phy80211p antenna "<root>...</root> at /home/lokesh/Downloads/omnetpp-6.2.0/minorproject/v2v/simulations/v2v//config.xml:34"
par V2VNetwork.node[14].nic.phy80211p antennaOffsetX 0m
attr unit m
par V2VNetwork.node[14].nic.phy80211p antennaOffsetY 0m
attr unit m
par V2VNetwork.node[14].nic.phy80211p antennaOffsetZ 1.5m
attr unit m
par V2VNetwork.node[14].nic.phy80211p antennaOffsetYaw 0rad
attr unit rad
par V2VNetwork.node[14].nic.phy80211p analogueModels "<root>...</root> at /home/lokesh/Downloads/omnetpp-6.2.0/minorproject/v2v/simulations/v2v//config.xml:34"
par V2VNetwork.node[14].nic.phy80211p decider "<root>...</root> at /home/lokesh/Downloads/omnetpp-6.2.0/minorproject/v2v/simulations/v2v//config.xml:34"
par V2VNetwork.node[14].nic.phy80211p minPowerLevel -110dBm
attr unit dBm
par V2VNetwork.node[14].nic.phy80211p timeRXToTX 0s
attr unit s
par V2VNetwork.node[14].nic.phy80211p timeRXToSleep 0s
attr unit s
par V2VNetwork.node[14].nic.phy80211p timeTXToRX 0s
attr unit s
par V2VNetwork.node[14].nic.phy80211p timeTXToSleep 0s
attr unit s
par V2VNetwork.node[14].nic.phy80211p timeSleepToRX 0s
attr unit s
par V2VNetwork.node[14].nic.phy80211p timeSleepToTX 0s
attr unit s
par V2VNetwork.node[14].nic.phy80211p initialRadioState 0
par V2VNetwork.node[14].nic.phy80211p radioMinAtt 1
par V2VNetwork.node[14].nic.phy80211p radioMaxAtt 0
par V2VNetwork.node[14].nic.phy80211p nbRadioChannels 1
par V2VNetwork.node[14].nic.phy80211p initialRadioChannel 0
par V2VNetwork.node[14].nic.phy80211p ccaThreshold -65dBm
attr unit dBm
par V2VNetwork.node[14].nic.phy80211p collectCollisionStatistics false
par V2VNetwork.node[14].nic.phy80211p allowTxDuringRx false
scalar V2VNetwork.node[14].nic.phy80211p busyTime 0.0096388085106381
par V2VNetwork.node[14].nic.mac1609_4 typename "\"org.car2x.veins.modules.mac.ieee80211p.Mac1609_4\""
par V2VNetwork.node[14].nic.mac1609_4 notAffectedByHostState false
par V2VNetwork.node[14].nic.mac1609_4 headerLength 0bit
attr unit bit
par V2VNetwork.node[14].nic.mac1609_4 address "\"auto\""
par V2VNetwork.node[14].nic.mac1609_4 useServiceChannel true
par V2VNetwork.node[14].nic.mac1609_4 serviceChannel 1
par V2VNetwork.node[14].nic.mac1609_4 bitrate 6000000bps
attr unit bps
par V2VNetwork.node[14].nic.mac1609_4 syncOffset 0.0003s
attr unit s
par V2VNetwork.node[14].nic.mac1609_4 txPower 20mW
attr unit mW
par V2VNetwork.node[14].nic.mac1609_4 queueSize 0
par V2VNetwork.node[14].nic.mac1609_4 dot11RTSThreshold 12000bit
attr unit bit
par V2VNetwork.node[14].nic.mac1609_4 dot11ShortRetryLimit 7
par V2VNetwork.node[14].nic.mac1609_4 dot11LongRetryLimit 4
par V2VNetwork.node[14].nic.mac1609_4 ackLength 112bit
attr unit bit
par V2VNetwork.node[14].nic.mac1609_4 useAcks false
par V2VNetwork.node[14].nic.mac1609_4 frameErrorRate 0
par V2VNetwork.node[14].nic.mac1609_4 ackErrorRate 0
scalar V2VNetwork.node[14].nic.mac1609_4 ReceivedUnicastPackets 0
scalar V2VNetwork.node[14].nic.mac1609_4 ReceivedBroadcasts 627
scalar V2VNetwork.node[14].nic.mac1609_4 SentPackets 162
scalar V2VNetwork.node[14].nic.mac1609_4 SentAcknowledgements 0
scalar V2VNetwork.node[14].nic.mac1609_4 RetriesExceeded 0
scalar V2VNetwork.node[14].nic.mac1609_4 SNIRLostPackets 1489
scalar V2VNetwork.node[14].nic.mac1609_4 RXTXLostPackets 551
scalar V2VNetwork.node[14].nic.mac1609_4 TotalLostPackets 2040
scalar V2VNetwork.node[14].nic.mac1609_4 DroppedPacketsInMac 0
scalar V2VNetwork.node[14].nic.mac1609_4 TooLittleTime 20
scalar V2VNetwork.node[14].nic.mac1609_4 TimesIntoBackoff 232
scalar V2VNetwork.node[14].nic.mac1609_4 SlotsBackoff 227
scalar V2VNetwork.node[14].nic.mac1609_4 NumInternalContention 0
scalar V2VNetwork.node[14].nic.mac1609_4 totalBusyTime 0.284818997558
scalar V2VNetwork.node[14].nic.mac1609_4 retriesExceeded:count 0
attr recordingmode count
attr source org_car2x_veins_modules_mac_sigRetriesExceeded
scalar V2VNetwork.node[14].nic.mac1609_4 sentAcks:count 0
attr recordingmode count
attr source org_car2x_veins_modules_mac_sigSentAck
scalar V2VNetwork.node[14].nic.mac1609_4 sentPackets:count 162
attr recordingmode count
attr source org_car2x_veins_modules_mac_sigSentPacket
scalar V2VNetwork.node[14].nic.mac1609_4 collisions:count 0
attr recordingmode count
attr source org_car2x_veins_modules_mac_sigCollision
scalar V2VNetwork.node[14].nic.mac1609_4 channelBusy:timeavg 0.0059772552671914
attr recordingmode timeavg
attr source org_car2x_veins_modules_mac_sigChannelBusy
par V2VNetwork.node[14].nic typename "\"org.car2x.veins.modules.nic.Nic80211p\""
par V2VNetwork.node[14].nic connectionManagerName "\"connectionManager\""
par V2VNetwork.node[14].veinsmobility typename "\"org.car2x.veins.modules.mobility.traci.TraCIMobility\""
par V2VNetwork.node[14].veinsmobility notAffectedByHostState true
par V2VNetwork.node[14].veinsmobility x 0
par V2VNetwork.node[14].veinsmobility y 0
par V2VNetwork.node[14].veinsmobility z 0
par V2VNetwork.node[14].veinsmobility xOrientation 1
par V2VNetwork.node[14].veinsmobility yOrientation 0
par V2VNetwork.node[14].veinsmobility zOrientation 0
par V2VNetwork.node[14].veinsmobility hostPositionOffset 0m
attr unit m
par V2VNetwork.node[14].veinsmobility setHostSpeed false
par V2VNetwork.node[14].veinsmobility accidentCount 0
par V2VNetwork.node[14].veinsmobility accidentStart 43.9893s
attr unit s
par V2VNetwork.node[14].veinsmobility accidentDuration "uniform(30s, 60s)"
attr unit s
par V2VNetwork.node[14].veinsmobility accidentInterval "uniform(30s, 60s)"
attr unit s
scalar V2VNetwork.node[14].veinsmobility startTime 0.1
scalar V2VNetwork.node[14].veinsmobility totalTime 46.9
scalar V2VNetwork.node[14].veinsmobility stopTime 47.1
scalar V2VNetwork.node[14].veinsmobility minSpeed 0
scalar V2VNetwork.node[14].veinsmobility maxSpeed 20.79683694304
scalar V2VNetwork.node[14].veinsmobility totalDistance 427.58871428714
scalar V2VNetwork.node[14].veinsmobility totalCO2Emission 219.91657592801
par V2VNetwork.node[14] typename "\"org.car2x.veins.nodes.Car\""
par V2VNetwork.node[14] applType "\"MyVeinsApp\""
par V2VNetwork.node[14] nicType "\"Nic80211p\""
par V2VNetwork.node[14] veinsmobilityType "\"org.car2x.veins.modules.mobility.traci.TraCIMobility\""
scalar V2VNetwork.rsu[0].appl messagesRelayedToInternet 43
scalar V2VNetwork.rsu[2].appl messagesRelayedToInternet 44
scalar V2VNetwork.rsu[0].appl messagesRelayedToInternet 44
scalar V2VNetwork.rsu[2].appl messagesRelayedToInternet 45
scalar V2VNetwork.rsu[0].appl messagesRelayedToInternet 45
scalar V2VNetwork.rsu[2].appl messagesRelayedToInternet 46
par V2VNetwork.obstacles typename "\"org.car2x.veins.modules.obstacle.ObstacleControl\""
par V2VNetwork.obstacles obstacles "<obstacles/> at content:1"
par V2VNetwork.obstacles gridCellSize 250
par V2VNetwork.annotations typename "\"org.car2x.veins.modules.world.annotations.AnnotationManager\""
par V2VNetwork.annotations draw false
par V2VNetwork.annotations annotations "<annotations/> at content:1"
par V2VNetwork.connectionManager typename "\"org.car2x.veins.base.connectionManager.ConnectionManager\""
par V2VNetwork.connectionManager sendDirect true
par V2VNetwork.connectionManager maxInterfDist 2600m
attr unit m
par V2VNetwork.connectionManager drawMaxIntfDist false
par V2VNetwork.world typename "\"org.car2x.veins.base.modules.BaseWorldUtility\""
par V2VNetwork.world playgroundSizeX 6000m
attr unit m
par V2VNetwork.world playgroundSizeY 6000m
attr unit m
par V2VNetwork.world playgroundSizeZ 50m
attr unit m
par V2VNetwork.world useTorus false
par V2VNetwork.world use2D false
par V2VNetwork.manager typename "\"org.car2x.veins.modules.mobility.traci.TraCIScenarioManagerLaunchd\""
par V2VNetwork.manager connectAt 0s
attr unit s
par V2VNetwork.manager firstStepAt -1s
attr unit s
par V2VNetwork.manager updateInterval 0.1s
attr unit s
par V2VNetwork.manager moduleType "\"org.car2x.veins.nodes.Car\""
par V2VNetwork.manager moduleName "\"node\""
par V2VNetwork.manager moduleDisplayString "\"*='i=veins/node/car;is=vs'\""
par V2VNetwork.manager trafficLightModuleType "\"\""
par V2VNetwork.manager trafficLightModuleName "\"tls\""
par V2VNetwork.manager trafficLightFilter "\"\""
par V2VNetwork.manager trafficLightModuleDisplayString "\"i=veins/node/trafficlight;is=vs\""
par V2VNetwork.manager host "\"localhost\""
par V2VNetwork.manager port 9999
par V2VNetwork.manager seed -1
par V2VNetwork.manager autoShutdown true
par V2VNetwork.manager margin 25
par V2VNetwork.manager roiRoads "\"\""
par V2VNetwork.manager roiRects "\"\""
par V2VNetwork.manager penetrationRate 1
par V2VNetwork.manager ignoreGuiCommands false
par V2VNetwork.manager order -1
par V2VNetwork.manager ignoreUnknownSubscriptionResults false
par V2VNetwork.manager launchConfig "<launch>...</launch> at /home/lokesh/Downloads/omnetpp-6.2.0/minorproject/v2v/simulations/v2v//sumo.launchd.xml:1"
scalar V2VNetwork.manager roiArea 0
par V2VNetwork.roadsCanvasVisualizer typename "\"org.car2x.veins.visualizer.roads.RoadsCanvasVisualizer\""
par V2VNetwork.roadsCanvasVisualizer enabled true
par V2VNetwork.roadsCanvasVisualizer lineZIndex -1
par V2VNetwork.roadsCanvasVisualizer lineColor "\"firebrick4\""
par V2VNetwork.roadsCanvasVisualizer lineWidth 1
par V2VNetwork.roadsCanvasVisualizer lineWidthZoom false
par V2VNetwork.node[0].appl typename "\"org.car2x.veins.modules.application.traci.MyVeinsApp\""
par V2VNetwork.node[0].appl headerLength 88bit
attr unit bit
par V2VNetwork.node[0].appl sendBeacons true
par V2VNetwork.node[0].appl beaconLengthBits 256bit
attr unit bit
par V2VNetwork.node[0].appl beaconUserPriority 7
par V2VNetwork.node[0].appl beaconInterval 0.5s
attr unit s
par V2VNetwork.node[0].appl dataLengthBits 1024bit
attr unit bit
par V2VNetwork.node[0].appl dataOnSch false
par V2VNetwork.node[0].appl dataUserPriority 7
par V2VNetwork.node[0].appl avoidBeaconSynchronization true
par V2VNetwork.node[0].appl sendWSA false
par V2VNetwork.node[0].appl wsaLengthBits 250bit
attr unit bit
par V2VNetwork.node[0].appl wsaInterval 1s
attr unit s
par V2VNetwork.node[0].appl appName "\"V2V Security App\""
par V2VNetwork.node[0].appl malicious false
par V2VNetwork.node[0].appl attackType "\"none\""
par V2VNetwork.node[0].appl attackInterval 3
par V2VNetwork.node[0].appl detectionEnabled true
par V2VNetwork.node[0].appl floodThreshold 3
par V2VNetwork.node[0].appl severeFloodThreshold 100
par V2VNetwork.node[0].appl burstThreshold 200
par V2VNetwork.node[0].appl anomalyThreshold 2
par V2VNetwork.node[0].appl detectionWindow 3
par V2VNetwork.node[0].appl blacklistTimeout 30
par V2VNetwork.node[0].appl persistentFloodDuration 6
par V2VNetwork.node[0].appl maxBurstDuration 1
par V2VNetwork.node[0].appl maxMessageAge 5
par V2VNetwork.node[0].appl minBurstSize 50
par V2VNetwork.node[0].appl maxSuspicionLevel 3
par V2VNetwork.node[0].appl maxReasonableSpeed 50
par V2VNetwork.node[0].appl entropyBasedDetection true
par V2VNetwork.node[0].appl messageValidation true
par V2VNetwork.node[0].appl totalAttackers 8
par V2VNetwork.node[0].appl totalDefenders 21
scalar V2VNetwork.node[0].appl generatedWSMs 50
scalar V2VNetwork.node[0].appl receivedWSMs 0
scalar V2VNetwork.node[0].appl generatedBSMs 0
scalar V2VNetwork.node[0].appl receivedBSMs 0
scalar V2VNetwork.node[0].appl generatedWSAs 0
scalar V2VNetwork.node[0].appl receivedWSAs 0
par V2VNetwork.node[0].nic.phy80211p typename "\"org.car2x.veins.modules.phy.PhyLayer80211p\""
par V2VNetwork.node[0].nic.phy80211p recordStats false
par V2VNetwork.node[0].nic.phy80211p usePropagationDelay true
par V2VNetwork.node[0].nic.phy80211p noiseFloor -98dBm
attr unit dBm
par V2VNetwork.node[0].nic.phy80211p useNoiseFloor true
par V2VNetwork.node[0].nic.phy80211p antenna "<root>...</root> at /home/lokesh/Downloads/omnetpp-6.2.0/minorproject/v2v/simulations/v2v//config.xml:34"
par V2VNetwork.node[0].nic.phy80211p antennaOffsetX 0m
attr unit m
par V2VNetwork.node[0].nic.phy80211p antennaOffsetY 0m
attr unit m
par V2VNetwork.node[0].nic.phy80211p antennaOffsetZ 1.5m
attr unit m
par V2VNetwork.node[0].nic.phy80211p antennaOffsetYaw 0rad
attr unit rad
par V2VNetwork.node[0].nic.phy80211p analogueModels "<root>...</root> at /home/lokesh/Downloads/omnetpp-6.2.0/minorproject/v2v/simulations/v2v//config.xml:34"
par V2VNetwork.node[0].nic.phy80211p decider "<root>...</root> at /home/lokesh/Downloads/omnetpp-6.2.0/minorproject/v2v/simulations/v2v//config.xml:34"
par V2VNetwork.node[0].nic.phy80211p minPowerLevel -110dBm
attr unit dBm
par V2VNetwork.node[0].nic.phy80211p timeRXToTX 0s
attr unit s
par V2VNetwork.node[0].nic.phy80211p timeRXToSleep 0s
attr unit s
par V2VNetwork.node[0].nic.phy80211p timeTXToRX 0s
attr unit s
par V2VNetwork.node[0].nic.phy80211p timeTXToSleep 0s
attr unit s
par V2VNetwork.node[0].nic.phy80211p timeSleepToRX 0s
attr unit s
par V2VNetwork.node[0].nic.phy80211p timeSleepToTX 0s
attr unit s
par V2VNetwork.node[0].nic.phy80211p initialRadioState 0
par V2VNetwork.node[0].nic.phy80211p radioMinAtt 1
par V2VNetwork.node[0].nic.phy80211p radioMaxAtt 0
par V2VNetwork.node[0].nic.phy80211p nbRadioChannels 1
par V2VNetwork.node[0].nic.phy80211p initialRadioChannel 0
par V2VNetwork.node[0].nic.phy80211p ccaThreshold -65dBm
attr unit dBm
par V2VNetwork.node[0].nic.phy80211p collectCollisionStatistics false
par V2VNetwork.node[0].nic.phy80211p allowTxDuringRx false
scalar V2VNetwork.node[0].nic.phy80211p busyTime 0.012176833667334
par V2VNetwork.node[0].nic.mac1609_4 typename "\"org.car2x.veins.modules.mac.ieee80211p.Mac1609_4\""
par V2VNetwork.node[0].nic.mac1609_4 notAffectedByHostState false
par V2VNetwork.node[0].nic.mac1609_4 headerLength 0bit
attr unit bit
par V2VNetwork.node[0].nic.mac1609_4 address "\"auto\""
par V2VNetwork.node[0].nic.mac1609_4 useServiceChannel true
par V2VNetwork.node[0].nic.mac1609_4 serviceChannel 1
par V2VNetwork.node[0].nic.mac1609_4 bitrate 6000000bps
attr unit bps
par V2VNetwork.node[0].nic.mac1609_4 syncOffset 0.0003s
attr unit s
par V2VNetwork.node[0].nic.mac1609_4 txPower 20mW
attr unit mW
par V2VNetwork.node[0].nic.mac1609_4 queueSize 0
par V2VNetwork.node[0].nic.mac1609_4 dot11RTSThreshold 12000bit
attr unit bit
par V2VNetwork.node[0].nic.mac1609_4 dot11ShortRetryLimit 7
par V2VNetwork.node[0].nic.mac1609_4 dot11LongRetryLimit 4
par V2VNetwork.node[0].nic.mac1609_4 ackLength 112bit
attr unit bit
par V2VNetwork.node[0].nic.mac1609_4 useAcks false
par V2VNetwork.node[0].nic.mac1609_4 frameErrorRate 0
par V2VNetwork.node[0].nic.mac1609_4 ackErrorRate 0
scalar V2VNetwork.node[0].nic.mac1609_4 ReceivedUnicastPackets 0
scalar V2VNetwork.node[0].nic.mac1609_4 ReceivedBroadcasts 353
scalar V2VNetwork.node[0].nic.mac1609_4 SentPackets 50
scalar V2VNetwork.node[0].nic.mac1609_4 SentAcknowledgements 0
scalar V2VNetwork.node[0].nic.mac1609_4 RetriesExceeded 0
scalar V2VNetwork.node[0].nic.mac1609_4 SNIRLostPackets 2486
scalar V2VNetwork.node[0].nic.mac1609_4 RXTXLostPackets 87
scalar V2VNetwork.node[0].nic.mac1609_4 TotalLostPackets 2573
scalar V2VNetwork.node[0].nic.mac1609_4 DroppedPacketsInMac 0
scalar V2VNetwork.node[0].nic.mac1609_4 TooLittleTime 0
scalar V2VNetwork.node[0].nic.mac1609_4 TimesIntoBackoff 100
scalar V2VNetwork.node[0].nic.mac1609_4 SlotsBackoff 89
scalar V2VNetwork.node[0].nic.mac1609_4 NumInternalContention 0
scalar V2VNetwork.node[0].nic.mac1609_4 totalBusyTime 0.300620023079
scalar V2VNetwork.node[0].nic.mac1609_4 retriesExceeded:count 0
attr recordingmode count
attr source org_car2x_veins_modules_mac_sigRetriesExceeded
scalar V2VNetwork.node[0].nic.mac1609_4 sentAcks:count 0
attr recordingmode count
attr source org_car2x_veins_modules_mac_sigSentAck
scalar V2VNetwork.node[0].nic.mac1609_4 sentPackets:count 50
attr recordingmode count
attr source org_car2x_veins_modules_mac_sigSentPacket
scalar V2VNetwork.node[0].nic.mac1609_4 collisions:count 0
attr recordingmode count
attr source org_car2x_veins_modules_mac_sigCollision
scalar V2VNetwork.node[0].nic.mac1609_4 channelBusy:timeavg 0.0059465335286372
attr recordingmode timeavg
attr source org_car2x_veins_modules_mac_sigChannelBusy
par V2VNetwork.node[0].nic typename "\"org.car2x.veins.modules.nic.Nic80211p\""
par V2VNetwork.node[0].nic connectionManagerName "\"connectionManager\""
par V2VNetwork.node[0].veinsmobility typename "\"org.car2x.veins.modules.mobility.traci.TraCIMobility\""
par V2VNetwork.node[0].veinsmobility notAffectedByHostState true
par V2VNetwork.node[0].veinsmobility x 0
par V2VNetwork.node[0].veinsmobility y 0
par V2VNetwork.node[0].veinsmobility z 0
par V2VNetwork.node[0].veinsmobility xOrientation 1
par V2VNetwork.node[0].veinsmobility yOrientation 0
par V2VNetwork.node[0].veinsmobility zOrientation 0
par V2VNetwork.node[0].veinsmobility hostPositionOffset 0m
attr unit m
par V2VNetwork.node[0].veinsmobility setHostSpeed false
par V2VNetwork.node[0].veinsmobility accidentCount 0
par V2VNetwork.node[0].veinsmobility accidentStart 41.5032s
attr unit s
par V2VNetwork.node[0].veinsmobility accidentDuration "uniform(30s, 60s)"
attr unit s
par V2VNetwork.node[0].veinsmobility accidentInterval "uniform(30s, 60s)"
attr unit s
scalar V2VNetwork.node[0].veinsmobility startTime 0.1
scalar V2VNetwork.node[0].veinsmobility totalTime 49.9
scalar V2VNetwork.node[0].veinsmobility stopTime 50
scalar V2VNetwork.node[0].veinsmobility minSpeed 0
scalar V2VNetwork.node[0].veinsmobility maxSpeed 6.1640374375507
scalar V2VNetwork.node[0].veinsmobility totalDistance 242.70888575579
scalar V2VNetwork.node[0].veinsmobility totalCO2Emission 73.583446301217
par V2VNetwork.node[0] typename "\"org.car2x.veins.nodes.Car\""
par V2VNetwork.node[0] applType "\"MyVeinsApp\""
par V2VNetwork.node[0] nicType "\"Nic80211p\""
par V2VNetwork.node[0] veinsmobilityType "\"org.car2x.veins.modules.mobility.traci.TraCIMobility\""
par V2VNetwork.node[1].appl typename "\"org.car2x.veins.modules.application.traci.MyVeinsApp\""
par V2VNetwork.node[1].appl headerLength 88bit
attr unit bit
par V2VNetwork.node[1].appl sendBeacons true
par V2VNetwork.node[1].appl beaconLengthBits 256bit
attr unit bit
par V2VNetwork.node[1].appl beaconUserPriority 7
par V2VNetwork.node[1].appl beaconInterval 0.5s
attr unit s
par V2VNetwork.node[1].appl dataLengthBits 1024bit
attr unit bit
par V2VNetwork.node[1].appl dataOnSch false
par V2VNetwork.node[1].appl dataUserPriority 7
par V2VNetwork.node[1].appl avoidBeaconSynchronization true
par V2VNetwork.node[1].appl sendWSA false
par V2VNetwork.node[1].appl wsaLengthBits 250bit
attr unit bit
par V2VNetwork.node[1].appl wsaInterval 1s
attr unit s
par V2VNetwork.node[1].appl appName "\"V2V Security App\""
par V2VNetwork.node[1].appl malicious false
par V2VNetwork.node[1].appl attackType "\"none\""
par V2VNetwork.node[1].appl attackInterval 3
par V2VNetwork.node[1].appl detectionEnabled true
par V2VNetwork.node[1].appl floodThreshold 3
par V2VNetwork.node[1].appl severeFloodThreshold 100
par V2VNetwork.node[1].appl burstThreshold 200
par V2VNetwork.node[1].appl anomalyThreshold 2
par V2VNetwork.node[1].appl detectionWindow 3
par V2VNetwork.node[1].appl blacklistTimeout 30
par V2VNetwork.node[1].appl persistentFloodDuration 6
par V2VNetwork.node[1].appl maxBurstDuration 1
par V2VNetwork.node[1].appl maxMessageAge 5
par V2VNetwork.node[1].appl minBurstSize 50
par V2VNetwork.node[1].appl maxSuspicionLevel 3
par V2VNetwork.node[1].appl maxReasonableSpeed 50
par V2VNetwork.node[1].appl entropyBasedDetection true
par V2VNetwork.node[1].appl messageValidation true
par V2VNetwork.node[1].appl totalAttackers 8
par V2VNetwork.node[1].appl totalDefenders 21
scalar V2VNetwork.node[1].appl generatedWSMs 50
scalar V2VNetwork.node[1].appl receivedWSMs 0
scalar V2VNetwork.node[1].appl generatedBSMs 0
scalar V2VNetwork.node[1].appl receivedBSMs 0
scalar V2VNetwork.node[1].appl generatedWSAs 0
scalar V2VNetwork.node[1].appl receivedWSAs 0
par V2VNetwork.node[1].nic.phy80211p typename "\"org.car2x.veins.modules.phy.PhyLayer80211p\""
par V2VNetwork.node[1].nic.phy80211p recordStats false
par V2VNetwork.node[1].nic.phy80211p usePropagationDelay true
par V2VNetwork.node[1].nic.phy80211p noiseFloor -98dBm
attr unit dBm
par V2VNetwork.node[1].nic.phy80211p useNoiseFloor true
par V2VNetwork.node[1].nic.phy80211p antenna "<root>...</root> at /home/lokesh/Downloads/omnetpp-6.2.0/minorproject/v2v/simulations/v2v//config.xml:34"
par V2VNetwork.node[1].nic.phy80211p antennaOffsetX 0m
attr unit m
par V2VNetwork.node[1].nic.phy80211p antennaOffsetY 0m
attr unit m
par V2VNetwork.node[1].nic.phy80211p antennaOffsetZ 1.5m
attr unit m
par V2VNetwork.node[1].nic.phy80211p antennaOffsetYaw 0rad
attr unit rad
par V2VNetwork.node[1].nic.phy80211p analogueModels "<root>...</root> at /home/lokesh/Downloads/omnetpp-6.2.0/minorproject/v2v/simulations/v2v//config.xml:34"
par V2VNetwork.node[1].nic.phy80211p decider "<root>...</root> at /home/lokesh/Downloads/omnetpp-6.2.0/minorproject/v2v/simulations/v2v//config.xml:34"
par V2VNetwork.node[1].nic.phy80211p minPowerLevel -110dBm
attr unit dBm
par V2VNetwork.node[1].nic.phy80211p timeRXToTX 0s
attr unit s
par V2VNetwork.node[1].nic.phy80211p timeRXToSleep 0s
attr unit s
par V2VNetwork.node[1].nic.phy80211p timeTXToRX 0s
attr unit s
par V2VNetwork.node[1].nic.phy80211p timeTXToSleep 0s
attr unit s
par V2VNetwork.node[1].nic.phy80211p timeSleepToRX 0s
attr unit s
par V2VNetwork.node[1].nic.phy80211p timeSleepToTX 0s
attr unit s
par V2VNetwork.node[1].nic.phy80211p initialRadioState 0
par V2VNetwork.node[1].nic.phy80211p radioMinAtt 1
par V2VNetwork.node[1].nic.phy80211p radioMaxAtt 0
par V2VNetwork.node[1].nic.phy80211p nbRadioChannels 1
par V2VNetwork.node[1].nic.phy80211p initialRadioChannel 0
par V2VNetwork.node[1].nic.phy80211p ccaThreshold -65dBm
attr unit dBm
par V2VNetwork.node[1].nic.phy80211p collectCollisionStatistics false
par V2VNetwork.node[1].nic.phy80211p allowTxDuringRx false
scalar V2VNetwork.node[1].nic.phy80211p busyTime 0.012536112224449
par V2VNetwork.node[1].nic.mac1609_4 typename "\"org.car2x.veins.modules.mac.ieee80211p.Mac1609_4\""
par V2VNetwork.node[1].nic.mac1609_4 notAffectedByHostState false
par V2VNetwork.node[1].nic.mac1609_4 headerLength 0bit
attr unit bit
par V2VNetwork.node[1].nic.mac1609_4 address "\"auto\""
par V2VNetwork.node[1].nic.mac1609_4 useServiceChannel true
par V2VNetwork.node[1].nic.mac1609_4 serviceChannel 1
par V2VNetwork.node[1].nic.mac1609_4 bitrate 6000000bps
attr unit bps
par V2VNetwork.node[1].nic.mac1609_4 syncOffset 0.0003s
attr unit s
par V2VNetwork.node[1].nic.mac1609_4 txPower 20mW
attr unit mW
par V2VNetwork.node[1].nic.mac1609_4 queueSize 0
par V2VNetwork.node[1].nic.mac1609_4 dot11RTSThreshold 12000bit
attr unit bit
par V2VNetwork.node[1].nic.mac1609_4 dot11ShortRetryLimit 7
par V2VNetwork.node[1].nic.mac1609_4 dot11LongRetryLimit 4
par V2VNetwork.node[1].nic.mac1609_4 ackLength 112bit
attr unit bit
par V2VNetwork.node[1].nic.mac1609_4 useAcks false
par V2VNetwork.node[1].nic.mac1609_4 frameErrorRate 0
par V2VNetwork.node[1].nic.mac1609_4 ackErrorRate 0
scalar V2VNetwork.node[1].nic.mac1609_4 ReceivedUnicastPackets 0
scalar V2VNetwork.node[1].nic.mac1609_4 ReceivedBroadcasts 630
scalar V2VNetwork.node[1].nic.mac1609_4 SentPackets 50
scalar V2VNetwork.node[1].nic.mac1609_4 SentAcknowledgements 0
scalar V2VNetwork.node[1].nic.mac1609_4 RetriesExceeded 0
scalar V2VNetwork.node[1].nic.mac1609_4 SNIRLostPackets 2292
scalar V2VNetwork.node[1].nic.mac1609_4 RXTXLostPackets 4
scalar V2VNetwork.node[1].nic.mac1609_4 TotalLostPackets 2296
scalar V2VNetwork.node[1].nic.mac1609_4 DroppedPacketsInMac 0
scalar V2VNetwork.node[1].nic.mac1609_4 TooLittleTime 0
scalar V2VNetwork.node[1].nic.mac1609_4 TimesIntoBackoff 100
scalar V2VNetwork.node[1].nic.mac1609_4 SlotsBackoff 76
scalar V2VNetwork.node[1].nic.mac1609_4 NumInternalContention 0
scalar V2VNetwork.node[1].nic.mac1609_4 totalBusyTime 0.298146
scalar V2VNetwork.node[1].nic.mac1609_4 retriesExceeded:count 0
attr recordingmode count
attr source org_car2x_veins_modules_mac_sigRetriesExceeded
scalar V2VNetwork.node[1].nic.mac1609_4 sentAcks:count 0
attr recordingmode count
attr source org_car2x_veins_modules_mac_sigSentAck
scalar V2VNetwork.node[1].nic.mac1609_4 sentPackets:count 50
attr recordingmode count
attr source org_car2x_veins_modules_mac_sigSentPacket
scalar V2VNetwork.node[1].nic.mac1609_4 collisions:count 0
attr recordingmode count
attr source org_car2x_veins_modules_mac_sigCollision
scalar V2VNetwork.node[1].nic.mac1609_4 channelBusy:timeavg 0.0059748697394788
attr recordingmode timeavg
attr source org_car2x_veins_modules_mac_sigChannelBusy
par V2VNetwork.node[1].nic typename "\"org.car2x.veins.modules.nic.Nic80211p\""
par V2VNetwork.node[1].nic connectionManagerName "\"connectionManager\""
par V2VNetwork.node[1].veinsmobility typename "\"org.car2x.veins.modules.mobility.traci.TraCIMobility\""
par V2VNetwork.node[1].veinsmobility notAffectedByHostState true
par V2VNetwork.node[1].veinsmobility x 0
par V2VNetwork.node[1].veinsmobility y 0
par V2VNetwork.node[1].veinsmobility z 0
par V2VNetwork.node[1].veinsmobility xOrientation 1
par V2VNetwork.node[1].veinsmobility yOrientation 0
par V2VNetwork.node[1].veinsmobility zOrientation 0
par V2VNetwork.node[1].veinsmobility hostPositionOffset 0m
attr unit m
par V2VNetwork.node[1].veinsmobility setHostSpeed false
par V2VNetwork.node[1].veinsmobility accidentCount 0
par V2VNetwork.node[1].veinsmobility accidentStart 41.7835s
attr unit s
par V2VNetwork.node[1].veinsmobility accidentDuration "uniform(30s, 60s)"
attr unit s
par V2VNetwork.node[1].veinsmobility accidentInterval "uniform(30s, 60s)"
attr unit s
scalar V2VNetwork.node[1].veinsmobility startTime 0.1
scalar V2VNetwork.node[1].veinsmobility totalTime 49.9
scalar V2VNetwork.node[1].veinsmobility stopTime 50
scalar V2VNetwork.node[1].veinsmobility minSpeed 0
scalar V2VNetwork.node[1].veinsmobility maxSpeed 6.1435385230929
scalar V2VNetwork.node[1].veinsmobility totalDistance 244.28302908197
scalar V2VNetwork.node[1].veinsmobility totalCO2Emission 73.458198580934
par V2VNetwork.node[1] typename "\"org.car2x.veins.nodes.Car\""
par V2VNetwork.node[1] applType "\"MyVeinsApp\""
par V2VNetwork.node[1] nicType "\"Nic80211p\""
par V2VNetwork.node[1] veinsmobilityType "\"org.car2x.veins.modules.mobility.traci.TraCIMobility\""
par V2VNetwork.node[2].appl typename "\"org.car2x.veins.modules.application.traci.MyVeinsApp\""
par V2VNetwork.node[2].appl headerLength 88bit
attr unit bit
par V2VNetwork.node[2].appl sendBeacons true
par V2VNetwork.node[2].appl beaconLengthBits 256bit
attr unit bit
par V2VNetwork.node[2].appl beaconUserPriority 7
par V2VNetwork.node[2].appl beaconInterval 0.5s
attr unit s
par V2VNetwork.node[2].appl dataLengthBits 1024bit
attr unit bit
par V2VNetwork.node[2].appl dataOnSch false
par V2VNetwork.node[2].appl dataUserPriority 7
par V2VNetwork.node[2].appl avoidBeaconSynchronization true
par V2VNetwork.node[2].appl sendWSA false
par V2VNetwork.node[2].appl wsaLengthBits 250bit
attr unit bit
par V2VNetwork.node[2].appl wsaInterval 1s
attr unit s
par V2VNetwork.node[2].appl appName "\"V2V Security App\""
par V2VNetwork.node[2].appl malicious false
par V2VNetwork.node[2].appl attackType "\"none\""
par V2VNetwork.node[2].appl attackInterval 3
par V2VNetwork.node[2].appl detectionEnabled true
par V2VNetwork.node[2].appl floodThreshold 3
par V2VNetwork.node[2].appl severeFloodThreshold 100
par V2VNetwork.node[2].appl burstThreshold 200
par V2VNetwork.node[2].appl anomalyThreshold 2
par V2VNetwork.node[2].appl detectionWindow 3
par V2VNetwork.node[2].appl blacklistTimeout 30
par V2VNetwork.node[2].appl persistentFloodDuration 6
par V2VNetwork.node[2].appl maxBurstDuration 1
par V2VNetwork.node[2].appl maxMessageAge 5
par V2VNetwork.node[2].appl minBurstSize 50
par V2VNetwork.node[2].appl maxSuspicionLevel 3
par V2VNetwork.node[2].appl maxReasonableSpeed 50
par V2VNetwork.node[2].appl entropyBasedDetection true
par V2VNetwork.node[2].appl messageValidation true
par V2VNetwork.node[2].appl totalAttackers 8
par V2VNetwork.node[2].appl totalDefenders 21
scalar V2VNetwork.node[2].appl generatedWSMs 50
scalar V2VNetwork.node[2].appl receivedWSMs 0
scalar V2VNetwork.node[2].appl generatedBSMs 0
scalar V2VNetwork.node[2].appl receivedBSMs 0
scalar V2VNetwork.node[2].appl generatedWSAs 0
scalar V2VNetwork.node[2].appl receivedWSAs 0
par V2VNetwork.node[2].nic.phy80211p typename "\"org.car2x.veins.modules.phy.PhyLayer80211p\""
par V2VNetwork.node[2].nic.phy80211p recordStats false
par V2VNetwork.node[2].nic.phy80211p usePropagationDelay true
par V2VNetwork.node[2].nic.phy80211p noiseFloor -98dBm
attr unit dBm
par V2VNetwork.node[2].nic.phy80211p useNoiseFloor true
par V2VNetwork.node[2].nic.phy80211p antenna "<root>...</root> at /home/lokesh/Downloads/omnetpp-6.2.0/minorproject/v2v/simulations/v2v//config.xml:34"
par V2VNetwork.node[2].nic.phy80211p antennaOffsetX 0m
attr unit m
par V2VNetwork.node[2].nic.phy80211p antennaOffsetY 0m
attr unit m
par V2VNetwork.node[2].nic.phy80211p antennaOffsetZ 1.5m
attr unit m
par V2VNetwork.node[2].nic.phy80211p antennaOffsetYaw 0rad
attr unit rad
par V2VNetwork.node[2].nic.phy80211p analogueModels "<root>...</root> at /home/lokesh/Downloads/omnetpp-6.2.0/minorproject/v2v/simulations/v2v//config.xml:34"
par V2VNetwork.node[2].nic.phy80211p decider "<root>...</root> at /home/lokesh/Downloads/omnetpp-6.2.0/minorproject/v2v/simulations/v2v//config.xml:34"
par V2VNetwork.node[2].nic.phy80211p minPowerLevel -110dBm
attr unit dBm
par V2VNetwork.node[2].nic.phy80211p timeRXToTX 0s
attr unit s
par V2VNetwork.node[2].nic.phy80211p timeRXToSleep 0s
attr unit s
par V2VNetwork.node[2].nic.phy80211p timeTXToRX 0s
attr unit s
par V2VNetwork.node[2].nic.phy80211p timeTXToSleep 0s
attr unit s
par V2VNetwork.node[2].nic.phy80211p timeSleepToRX 0s
attr unit s
par V2VNetwork.node[2].nic.phy80211p timeSleepToTX 0s
attr unit s
par V2VNetwork.node[2].nic.phy80211p initialRadioState 0
par V2VNetwork.node[2].nic.phy80211p radioMinAtt 1
par V2VNetwork.node[2].nic.phy80211p radioMaxAtt 0
par V2VNetwork.node[2].nic.phy80211p nbRadioChannels 1
par V2VNetwork.node[2].nic.phy80211p initialRadioChannel 0
par V2VNetwork.node[2].nic.phy80211p ccaThreshold -65dBm
attr unit dBm
par V2VNetwork.node[2].nic.phy80211p collectCollisionStatistics false
par V2VNetwork.node[2].nic.phy80211p allowTxDuringRx false
scalar V2VNetwork.node[2].nic.phy80211p busyTime 0.012514468937875
par V2VNetwork.node[2].nic.mac1609_4 typename "\"org.car2x.veins.modules.mac.ieee80211p.Mac1609_4\""
par V2VNetwork.node[2].nic.mac1609_4 notAffectedByHostState false
par V2VNetwork.node[2].nic.mac1609_4 headerLength 0bit
attr unit bit
par V2VNetwork.node[2].nic.mac1609_4 address "\"auto\""
par V2VNetwork.node[2].nic.mac1609_4 useServiceChannel true
par V2VNetwork.node[2].nic.mac1609_4 serviceChannel 1
par V2VNetwork.node[2].nic.mac1609_4 bitrate 6000000bps
attr unit bps
par V2VNetwork.node[2].nic.mac1609_4 syncOffset 0.0003s
attr unit s
par V2VNetwork.node[2].nic.mac1609_4 txPower 20mW
attr unit mW
par V2VNetwork.node[2].nic.mac1609_4 queueSize 0
par V2VNetwork.node[2].nic.mac1609_4 dot11RTSThreshold 12000bit
attr unit bit
par V2VNetwork.node[2].nic.mac1609_4 dot11ShortRetryLimit 7
par V2VNetwork.node[2].nic.mac1609_4 dot11LongRetryLimit 4
par V2VNetwork.node[2].nic.mac1609_4 ackLength 112bit
attr unit bit
par V2VNetwork.node[2].nic.mac1609_4 useAcks false
par V2VNetwork.node[2].nic.mac1609_4 frameErrorRate 0
par V2VNetwork.node[2].nic.mac1609_4 ackErrorRate 0
scalar V2VNetwork.node[2].nic.mac1609_4 ReceivedUnicastPackets 0
scalar V2VNetwork.node[2].nic.mac1609_4 ReceivedBroadcasts 625
scalar V2VNetwork.node[2].nic.mac1609_4 SentPackets 50
scalar V2VNetwork.node[2].nic.mac1609_4 SentAcknowledgements 0
scalar V2VNetwork.node[2].nic.mac1609_4 RetriesExceeded 0
scalar V2VNetwork.node[2].nic.mac1609_4 SNIRLostPackets 2292
scalar V2VNetwork.node[2].nic.mac1609_4 RXTXLostPackets 9
scalar V2VNetwork.node[2].nic.mac1609_4 TotalLostPackets 2301
scalar V2VNetwork.node[2].nic.mac1609_4 DroppedPacketsInMac 0
scalar V2VNetwork.node[2].nic.mac1609_4 TooLittleTime 0
scalar V2VNetwork.node[2].nic.mac1609_4 TimesIntoBackoff 100
scalar V2VNetwork.node[2].nic.mac1609_4 SlotsBackoff 74
scalar V2VNetwork.node[2].nic.mac1609_4 NumInternalContention 0
scalar V2VNetwork.node[2].nic.mac1609_4 totalBusyTime 0.300067152342
scalar V2VNetwork.node[2].nic.mac1609_4 retriesExceeded:count 0
attr recordingmode count
attr source org_car2x_veins_modules_mac_sigRetriesExceeded
scalar V2VNetwork.node[2].nic.mac1609_4 sentAcks:count 0
attr recordingmode count
attr source org_car2x_veins_modules_mac_sigSentAck
scalar V2VNetwork.node[2].nic.mac1609_4 sentPackets:count 50
attr recordingmode count
attr source org_car2x_veins_modules_mac_sigSentPacket
scalar V2VNetwork.node[2].nic.mac1609_4 collisions:count 0
attr recordingmode count
attr source org_car2x_veins_modules_mac_sigCollision
scalar V2VNetwork.node[2].nic.mac1609_4 channelBusy:timeavg 0.0059354539547494
attr recordingmode timeavg
attr source org_car2x_veins_modules_mac_sigChannelBusy
par V2VNetwork.node[2].nic typename "\"org.car2x.veins.modules.nic.Nic80211p\""
par V2VNetwork.node[2].nic connectionManagerName "\"connectionManager\""
par V2VNetwork.node[2].veinsmobility typename "\"org.car2x.veins.modules.mobility.traci.TraCIMobility\""
par V2VNetwork.node[2].veinsmobility notAffectedByHostState true
par V2VNetwork.node[2].veinsmobility x 0
par V2VNetwork.node[2].veinsmobility y 0
par V2VNetwork.node[2].veinsmobility z 0
par V2VNetwork.node[2].veinsmobility xOrientation 1
par V2VNetwork.node[2].veinsmobility yOrientation 0
par V2VNetwork.node[2].veinsmobility zOrientation 0
par V2VNetwork.node[2].veinsmobility hostPositionOffset 0m
attr unit m
par V2VNetwork.node[2].veinsmobility setHostSpeed false
par V2VNetwork.node[2].veinsmobility accidentCount 0
par V2VNetwork.node[2].veinsmobility accidentStart 30.6066s
attr unit s
par V2VNetwork.node[2].veinsmobility accidentDuration "uniform(30s, 60s)"
attr unit s
par V2VNetwork.node[2].veinsmobility accidentInterval "uniform(30s, 60s)"
attr unit s
scalar V2VNetwork.node[2].veinsmobility startTime 0.1
scalar V2VNetwork.node[2].veinsmobility totalTime 49.9
scalar V2VNetwork.node[2].veinsmobility stopTime 50
scalar V2VNetwork.node[2].veinsmobility minSpeed 0
scalar V2VNetwork.node[2].veinsmobility maxSpeed 5.0266351108206
scalar V2VNetwork.node[2].veinsmobility totalDistance 239.54141009897
scalar V2VNetwork.node[2].veinsmobility totalCO2Emission 71.363545145656
par V2VNetwork.node[2] typename "\"org.car2x.veins.nodes.Car\""
par V2VNetwork.node[2] applType "\"MyVeinsApp\""
par V2VNetwork.node[2] nicType "\"Nic80211p\""
par V2VNetwork.node[2] veinsmobilityType "\"org.car2x.veins.modules.mobility.traci.TraCIMobility\""
par V2VNetwork.node[3].appl typename "\"org.car2x.veins.modules.application.traci.MyVeinsApp\""
par V2VNetwork.node[3].appl headerLength 88bit
attr unit bit
par V2VNetwork.node[3].appl sendBeacons true
par V2VNetwork.node[3].appl beaconLengthBits 256bit
attr unit bit
par V2VNetwork.node[3].appl beaconUserPriority 7
par V2VNetwork.node[3].appl beaconInterval 0.5s
attr unit s
par V2VNetwork.node[3].appl dataLengthBits 1024bit
attr unit bit
par V2VNetwork.node[3].appl dataOnSch false
par V2VNetwork.node[3].appl dataUserPriority 7
par V2VNetwork.node[3].appl avoidBeaconSynchronization true
par V2VNetwork.node[3].appl sendWSA false
par V2VNetwork.node[3].appl wsaLengthBits 250bit
attr unit bit
par V2VNetwork.node[3].appl wsaInterval 1s
attr unit s
par V2VNetwork.node[3].appl appName "\"V2V Security App\""
par V2VNetwork.node[3].appl malicious false
par V2VNetwork.node[3].appl attackType "\"none\""
par V2VNetwork.node[3].appl attackInterval 3
par V2VNetwork.node[3].appl detectionEnabled true
par V2VNetwork.node[3].appl floodThreshold 3
par V2VNetwork.node[3].appl severeFloodThreshold 100
par V2VNetwork.node[3].appl burstThreshold 200
par V2VNetwork.node[3].appl anomalyThreshold 2
par V2VNetwork.node[3].appl detectionWindow 3
par V2VNetwork.node[3].appl blacklistTimeout 30
par V2VNetwork.node[3].appl persistentFloodDuration 6
par V2VNetwork.node[3].appl maxBurstDuration 1
par V2VNetwork.node[3].appl maxMessageAge 5
par V2VNetwork.node[3].appl minBurstSize 50
par V2VNetwork.node[3].appl maxSuspicionLevel 3
par V2VNetwork.node[3].appl maxReasonableSpeed 50
par V2VNetwork.node[3].appl entropyBasedDetection true
par V2VNetwork.node[3].appl messageValidation true
par V2VNetwork.node[3].appl totalAttackers 8
par V2VNetwork.node[3].appl totalDefenders 21
scalar V2VNetwork.node[3].appl generatedWSMs 50
scalar V2VNetwork.node[3].appl receivedWSMs 0
scalar V2VNetwork.node[3].appl generatedBSMs 0
scalar V2VNetwork.node[3].appl receivedBSMs 0
scalar V2VNetwork.node[3].appl generatedWSAs 0
scalar V2VNetwork.node[3].appl receivedWSAs 0
par V2VNetwork.node[3].nic.phy80211p typename "\"org.car2x.veins.modules.phy.PhyLayer80211p\""
par V2VNetwork.node[3].nic.phy80211p recordStats false
par V2VNetwork.node[3].nic.phy80211p usePropagationDelay true
par V2VNetwork.node[3].nic.phy80211p noiseFloor -98dBm
attr unit dBm
par V2VNetwork.node[3].nic.phy80211p useNoiseFloor true
par V2VNetwork.node[3].nic.phy80211p antenna "<root>...</root> at /home/lokesh/Downloads/omnetpp-6.2.0/minorproject/v2v/simulations/v2v//config.xml:34"
par V2VNetwork.node[3].nic.phy80211p antennaOffsetX 0m
attr unit m
par V2VNetwork.node[3].nic.phy80211p antennaOffsetY 0m
attr unit m
par V2VNetwork.node[3].nic.phy80211p antennaOffsetZ 1.5m
attr unit m
par V2VNetwork.node[3].nic.phy80211p antennaOffsetYaw 0rad
attr unit rad
par V2VNetwork.node[3].nic.phy80211p analogueModels "<root>...</root> at /home/lokesh/Downloads/omnetpp-6.2.0/minorproject/v2v/simulations/v2v//config.xml:34"
par V2VNetwork.node[3].nic.phy80211p decider "<root>...</root> at /home/lokesh/Downloads/omnetpp-6.2.0/minorproject/v2v/simulations/v2v//config.xml:34"
par V2VNetwork.node[3].nic.phy80211p minPowerLevel -110dBm
attr unit dBm
par V2VNetwork.node[3].nic.phy80211p timeRXToTX 0s
attr unit s
par V2VNetwork.node[3].nic.phy80211p timeRXToSleep 0s
attr unit s
par V2VNetwork.node[3].nic.phy80211p timeTXToRX 0s
attr unit s
par V2VNetwork.node[3].nic.phy80211p timeTXToSleep 0s
attr unit s
par V2VNetwork.node[3].nic.phy80211p timeSleepToRX 0s
attr unit s
par V2VNetwork.node[3].nic.phy80211p timeSleepToTX 0s
attr unit s
par V2VNetwork.node[3].nic.phy80211p initialRadioState 0
par V2VNetwork.node[3].nic.phy80211p radioMinAtt 1
par V2VNetwork.node[3].nic.phy80211p radioMaxAtt 0
par V2VNetwork.node[3].nic.phy80211p nbRadioChannels 1
par V2VNetwork.node[3].nic.phy80211p initialRadioChannel 0
par V2VNetwork.node[3].nic.phy80211p ccaThreshold -65dBm
attr unit dBm
par V2VNetwork.node[3].nic.phy80211p collectCollisionStatistics false
par V2VNetwork.node[3].nic.phy80211p allowTxDuringRx false
scalar V2VNetwork.node[3].nic.phy80211p busyTime 0.012072625250501
par V2VNetwork.node[3].nic.mac1609_4 typename "\"org.car2x.veins.modules.mac.ieee80211p.Mac1609_4\""
par V2VNetwork.node[3].nic.mac1609_4 notAffectedByHostState false
par V2VNetwork.node[3].nic.mac1609_4 headerLength 0bit
attr unit bit
par V2VNetwork.node[3].nic.mac1609_4 address "\"auto\""
par V2VNetwork.node[3].nic.mac1609_4 useServiceChannel true
par V2VNetwork.node[3].nic.mac1609_4 serviceChannel 1
par V2VNetwork.node[3].nic.mac1609_4 bitrate 6000000bps
attr unit bps
par V2VNetwork.node[3].nic.mac1609_4 syncOffset 0.0003s
attr unit s
par V2VNetwork.node[3].nic.mac1609_4 txPower 20mW
attr unit mW
par V2VNetwork.node[3].nic.mac1609_4 queueSize 0
par V2VNetwork.node[3].nic.mac1609_4 dot11RTSThreshold 12000bit
attr unit bit
par V2VNetwork.node[3].nic.mac1609_4 dot11ShortRetryLimit 7
par V2VNetwork.node[3].nic.mac1609_4 dot11LongRetryLimit 4
par V2VNetwork.node[3].nic.mac1609_4 ackLength 112bit
attr unit bit
par V2VNetwork.node[3].nic.mac1609_4 useAcks false
par V2VNetwork.node[3].nic.mac1609_4 frameErrorRate 0
par V2VNetwork.node[3].nic.mac1609_4 ackErrorRate 0
scalar V2VNetwork.node[3].nic.mac1609_4 ReceivedUnicastPackets 0
scalar V2VNetwork.node[3].nic.mac1609_4 ReceivedBroadcasts 661
scalar V2VNetwork.node[3].nic.mac1609_4 SentPackets 50
scalar V2VNetwork.node[3].nic.mac1609_4 SentAcknowledgements 0
scalar V2VNetwork.node[3].nic.mac1609_4 RetriesExceeded 0
scalar V2VNetwork.node[3].nic.mac1609_4 SNIRLostPackets 2128
scalar V2VNetwork.node[3].nic.mac1609_4 RXTXLostPackets 87
scalar V2VNetwork.node[3].nic.mac1609_4 TotalLostPackets 2215
scalar V2VNetwork.node[3].nic.mac1609_4 DroppedPacketsInMac 0
scalar V2VNetwork.node[3].nic.mac1609_4 TooLittleTime 0
scalar V2VNetwork.node[3].nic.mac1609_4 TimesIntoBackoff 100
scalar V2VNetwork.node[3].nic.mac1609_4 SlotsBackoff 70
scalar V2VNetwork.node[3].nic.mac1609_4 NumInternalContention 0
scalar V2VNetwork.node[3].nic.mac1609_4 totalBusyTime 0.292946149159
scalar V2VNetwork.node[3].nic.mac1609_4 retriesExceeded:count 0
attr recordingmode count
attr source org_car2x_veins_modules_mac_sigRetriesExceeded
scalar V2VNetwork.node[3].nic.mac1609_4 sentAcks:count 0
attr recordingmode count
attr source org_car2x_veins_modules_mac_sigSentAck
scalar V2VNetwork.node[3].nic.mac1609_4 sentPackets:count 50
attr recordingmode count
attr source org_car2x_veins_modules_mac_sigSentPacket
scalar V2VNetwork.node[3].nic.mac1609_4 collisions:count 0
attr recordingmode count
attr source org_car2x_veins_modules_mac_sigCollision
scalar V2VNetwork.node[3].nic.mac1609_4 channelBusy:timeavg 0.0058706643118035
attr recordingmode timeavg
attr source org_car2x_veins_modules_mac_sigChannelBusy
par V2VNetwork.node[3].nic typename "\"org.car2x.veins.modules.nic.Nic80211p\""
par V2VNetwork.node[3].nic connectionManagerName "\"connectionManager\""
par V2VNetwork.node[3].veinsmobility typename "\"org.car2x.veins.modules.mobility.traci.TraCIMobility\""
par V2VNetwork.node[3].veinsmobility notAffectedByHostState true
par V2VNetwork.node[3].veinsmobility x 0
par V2VNetwork.node[3].veinsmobility y 0
par V2VNetwork.node[3].veinsmobility z 0
par V2VNetwork.node[3].veinsmobility xOrientation 1
par V2VNetwork.node[3].veinsmobility yOrientation 0
par V2VNetwork.node[3].veinsmobility zOrientation 0
par V2VNetwork.node[3].veinsmobility hostPositionOffset 0m
attr unit m
par V2VNetwork.node[3].veinsmobility setHostSpeed false
par V2VNetwork.node[3].veinsmobility accidentCount 0
par V2VNetwork.node[3].veinsmobility accidentStart 56.1026s
attr unit s
par V2VNetwork.node[3].veinsmobility accidentDuration "uniform(30s, 60s)"
attr unit s
par V2VNetwork.node[3].veinsmobility accidentInterval "uniform(30s, 60s)"
attr unit s
scalar V2VNetwork.node[3].veinsmobility startTime 0.1
scalar V2VNetwork.node[3].veinsmobility totalTime 49.9
scalar V2VNetwork.node[3].veinsmobility stopTime 50
scalar V2VNetwork.node[3].veinsmobility minSpeed 0
scalar V2VNetwork.node[3].veinsmobility maxSpeed 5.9006006303476
scalar V2VNetwork.node[3].veinsmobility totalDistance 236.07468539596
scalar V2VNetwork.node[3].veinsmobility totalCO2Emission 74.589967869261
par V2VNetwork.node[3] typename "\"org.car2x.veins.nodes.Car\""
par V2VNetwork.node[3] applType "\"MyVeinsApp\""
par V2VNetwork.node[3] nicType "\"Nic80211p\""
par V2VNetwork.node[3] veinsmobilityType "\"org.car2x.veins.modules.mobility.traci.TraCIMobility\""
par V2VNetwork.node[4].appl typename "\"org.car2x.veins.modules.application.traci.MyVeinsApp\""
par V2VNetwork.node[4].appl headerLength 88bit
attr unit bit
par V2VNetwork.node[4].appl sendBeacons true
par V2VNetwork.node[4].appl beaconLengthBits 256bit
attr unit bit
par V2VNetwork.node[4].appl beaconUserPriority 7
par V2VNetwork.node[4].appl beaconInterval 0.5s
attr unit s
par V2VNetwork.node[4].appl dataLengthBits 1024bit
attr unit bit
par V2VNetwork.node[4].appl dataOnSch false
par V2VNetwork.node[4].appl dataUserPriority 7
par V2VNetwork.node[4].appl avoidBeaconSynchronization true
par V2VNetwork.node[4].appl sendWSA false
par V2VNetwork.node[4].appl wsaLengthBits 250bit
attr unit bit
par V2VNetwork.node[4].appl wsaInterval 1s
attr unit s
par V2VNetwork.node[4].appl appName "\"V2V Security App\""
par V2VNetwork.node[4].appl malicious false
par V2VNetwork.node[4].appl attackType "\"none\""
par V2VNetwork.node[4].appl attackInterval 3
par V2VNetwork.node[4].appl detectionEnabled true
par V2VNetwork.node[4].appl floodThreshold 3
par V2VNetwork.node[4].appl severeFloodThreshold 100
par V2VNetwork.node[4].appl burstThreshold 200
par V2VNetwork.node[4].appl anomalyThreshold 2
par V2VNetwork.node[4].appl detectionWindow 3
par V2VNetwork.node[4].appl blacklistTimeout 30
par V2VNetwork.node[4].appl persistentFloodDuration 6
par V2VNetwork.node[4].appl maxBurstDuration 1
par V2VNetwork.node[4].appl maxMessageAge 5
par V2VNetwork.node[4].appl minBurstSize 50
par V2VNetwork.node[4].appl maxSuspicionLevel 3
par V2VNetwork.node[4].appl maxReasonableSpeed 50
par V2VNetwork.node[4].appl entropyBasedDetection true
par V2VNetwork.node[4].appl messageValidation true
par V2VNetwork.node[4].appl totalAttackers 8
par V2VNetwork.node[4].appl totalDefenders 21
scalar V2VNetwork.node[4].appl generatedWSMs 50
scalar V2VNetwork.node[4].appl receivedWSMs 0
scalar V2VNetwork.node[4].appl generatedBSMs 0
scalar V2VNetwork.node[4].appl receivedBSMs 0
scalar V2VNetwork.node[4].appl generatedWSAs 0
scalar V2VNetwork.node[4].appl receivedWSAs 0
par V2VNetwork.node[4].nic.phy80211p typename "\"org.car2x.veins.modules.phy.PhyLayer80211p\""
par V2VNetwork.node[4].nic.phy80211p recordStats false
par V2VNetwork.node[4].nic.phy80211p usePropagationDelay true
par V2VNetwork.node[4].nic.phy80211p noiseFloor -98dBm
attr unit dBm
par V2VNetwork.node[4].nic.phy80211p useNoiseFloor true
par V2VNetwork.node[4].nic.phy80211p antenna "<root>...</root> at /home/lokesh/Downloads/omnetpp-6.2.0/minorproject/v2v/simulations/v2v//config.xml:34"
par V2VNetwork.node[4].nic.phy80211p antennaOffsetX 0m
attr unit m
par V2VNetwork.node[4].nic.phy80211p antennaOffsetY 0m
attr unit m
par V2VNetwork.node[4].nic.phy80211p antennaOffsetZ 1.5m
attr unit m
par V2VNetwork.node[4].nic.phy80211p antennaOffsetYaw 0rad
attr unit rad
par V2VNetwork.node[4].nic.phy80211p analogueModels "<root>...</root> at /home/lokesh/Downloads/omnetpp-6.2.0/minorproject/v2v/simulations/v2v//config.xml:34"
par V2VNetwork.node[4].nic.phy80211p decider "<root>...</root> at /home/lokesh/Downloads/omnetpp-6.2.0/minorproject/v2v/simulations/v2v//config.xml:34"
par V2VNetwork.node[4].nic.phy80211p minPowerLevel -110dBm
attr unit dBm
par V2VNetwork.node[4].nic.phy80211p timeRXToTX 0s
attr unit s
par V2VNetwork.node[4].nic.phy80211p timeRXToSleep 0s
attr unit s
par V2VNetwork.node[4].nic.phy80211p timeTXToRX 0s
attr unit s
par V2VNetwork.node[4].nic.phy80211p timeTXToSleep 0s
attr unit s
par V2VNetwork.node[4].nic.phy80211p timeSleepToRX 0s
attr unit s
par V2VNetwork.node[4].nic.phy80211p timeSleepToTX 0s
attr unit s
par V2VNetwork.node[4].nic.phy80211p initialRadioState 0
par V2VNetwork.node[4].nic.phy80211p radioMinAtt 1
par V2VNetwork.node[4].nic.phy80211p radioMaxAtt 0
par V2VNetwork.node[4].nic.phy80211p nbRadioChannels 1
par V2VNetwork.node[4].nic.phy80211p initialRadioChannel 0
par V2VNetwork.node[4].nic.phy80211p ccaThreshold -65dBm
attr unit dBm
par V2VNetwork.node[4].nic.phy80211p collectCollisionStatistics false
par V2VNetwork.node[4].nic.phy80211p allowTxDuringRx false
scalar V2VNetwork.node[4].nic.phy80211p busyTime 0.012283126252505
par V2VNetwork.node[4].nic.mac1609_4 typename "\"org.car2x.veins.modules.mac.ieee80211p.Mac1609_4\""
par V2VNetwork.node[4].nic.mac1609_4 notAffectedByHostState false
par V2VNetwork.node[4].nic.mac1609_4 headerLength 0bit
attr unit bit
par V2VNetwork.node[4].nic.mac1609_4 address "\"auto\""
par V2VNetwork.node[4].nic.mac1609_4 useServiceChannel true
par V2VNetwork.node[4].nic.mac1609_4 serviceChannel 1
par V2VNetwork.node[4].nic.mac1609_4 bitrate 6000000bps
attr unit bps
par V2VNetwork.node[4].nic.mac1609_4 syncOffset 0.0003s
attr unit s
par V2VNetwork.node[4].nic.mac1609_4 txPower 20mW
attr unit mW
par V2VNetwork.node[4].nic.mac1609_4 queueSize 0
par V2VNetwork.node[4].nic.mac1609_4 dot11RTSThreshold 12000bit
attr unit bit
par V2VNetwork.node[4].nic.mac1609_4 dot11ShortRetryLimit 7
par V2VNetwork.node[4].nic.mac1609_4 dot11LongRetryLimit 4
par V2VNetwork.node[4].nic.mac1609_4 ackLength 112bit
attr unit bit
par V2VNetwork.node[4].nic.mac1609_4 useAcks false
par V2VNetwork.node[4].nic.mac1609_4 frameErrorRate 0
par V2VNetwork.node[4].nic.mac1609_4 ackErrorRate 0
scalar V2VNetwork.node[4].nic.mac1609_4 ReceivedUnicastPackets 0
scalar V2VNetwork.node[4].nic.mac1609_4 ReceivedBroadcasts 720
scalar V2VNetwork.node[4].nic.mac1609_4 SentPackets 50
scalar V2VNetwork.node[4].nic.mac1609_4 SentAcknowledgements 0
scalar V2VNetwork.node[4].nic.mac1609_4 RetriesExceeded 0
scalar V2VNetwork.node[4].nic.mac1609_4 SNIRLostPackets 2128
scalar V2VNetwork.node[4].nic.mac1609_4 RXTXLostPackets 48
scalar V2VNetwork.node[4].nic.mac1609_4 TotalLostPackets 2176
scalar V2VNetwork.node[4].nic.mac1609_4 DroppedPacketsInMac 0
scalar V2VNetwork.node[4].nic.mac1609_4 TooLittleTime 0
scalar V2VNetwork.node[4].nic.mac1609_4 TimesIntoBackoff 100
scalar V2VNetwork.node[4].nic.mac1609_4 SlotsBackoff 86
scalar V2VNetwork.node[4].nic.mac1609_4 NumInternalContention 0
scalar V2VNetwork.node[4].nic.mac1609_4 totalBusyTime 0.298621792346
scalar V2VNetwork.node[4].nic.mac1609_4 retriesExceeded:count 0
attr recordingmode count
attr source org_car2x_veins_modules_mac_sigRetriesExceeded
scalar V2VNetwork.node[4].nic.mac1609_4 sentAcks:count 0
attr recordingmode count
attr source org_car2x_veins_modules_mac_sigSentAck
scalar V2VNetwork.node[4].nic.mac1609_4 sentPackets:count 50
attr recordingmode count
attr source org_car2x_veins_modules_mac_sigSentPacket
scalar V2VNetwork.node[4].nic.mac1609_4 collisions:count 0
attr recordingmode count
attr source org_car2x_veins_modules_mac_sigCollision
scalar V2VNetwork.node[4].nic.mac1609_4 channelBusy:timeavg 0.005906488824569
attr recordingmode timeavg
attr source org_car2x_veins_modules_mac_sigChannelBusy
par V2VNetwork.node[4].nic typename "\"org.car2x.veins.modules.nic.Nic80211p\""
par V2VNetwork.node[4].nic connectionManagerName "\"connectionManager\""
par V2VNetwork.node[4].veinsmobility typename "\"org.car2x.veins.modules.mobility.traci.TraCIMobility\""
par V2VNetwork.node[4].veinsmobility notAffectedByHostState true
par V2VNetwork.node[4].veinsmobility x 0
par V2VNetwork.node[4].veinsmobility y 0
par V2VNetwork.node[4].veinsmobility z 0
par V2VNetwork.node[4].veinsmobility xOrientation 1
par V2VNetwork.node[4].veinsmobility yOrientation 0
par V2VNetwork.node[4].veinsmobility zOrientation 0
par V2VNetwork.node[4].veinsmobility hostPositionOffset 0m
attr unit m
par V2VNetwork.node[4].veinsmobility setHostSpeed false
par V2VNetwork.node[4].veinsmobility accidentCount 0
par V2VNetwork.node[4].veinsmobility accidentStart 53.4159s
attr unit s
par V2VNetwork.node[4].veinsmobility accidentDuration "uniform(30s, 60s)"
attr unit s
par V2VNetwork.node[4].veinsmobility accidentInterval "uniform(30s, 60s)"
attr unit s
scalar V2VNetwork.node[4].veinsmobility startTime 0.1
scalar V2VNetwork.node[4].veinsmobility totalTime 49.9
scalar V2VNetwork.node[4].veinsmobility stopTime 50
scalar V2VNetwork.node[4].veinsmobility minSpeed 0
scalar V2VNetwork.node[4].veinsmobility maxSpeed 6.976860530415
scalar V2VNetwork.node[4].veinsmobility totalDistance 242.63834092146
scalar V2VNetwork.node[4].veinsmobility totalCO2Emission 74.836012302101
par V2VNetwork.node[4] typename "\"org.car2x.veins.nodes.Car\""
par V2VNetwork.node[4] applType "\"MyVeinsApp\""
par V2VNetwork.node[4] nicType "\"Nic80211p\""
par V2VNetwork.node[4] veinsmobilityType "\"org.car2x.veins.modules.mobility.traci.TraCIMobility\""
par V2VNetwork.node[5].appl typename "\"org.car2x.veins.modules.application.traci.MyVeinsApp\""
par V2VNetwork.node[5].appl headerLength 88bit
attr unit bit
par V2VNetwork.node[5].appl sendBeacons true
par V2VNetwork.node[5].appl beaconLengthBits 256bit
attr unit bit
par V2VNetwork.node[5].appl beaconUserPriority 7
par V2VNetwork.node[5].appl beaconInterval 0.5s
attr unit s
par V2VNetwork.node[5].appl dataLengthBits 1024bit
attr unit bit
par V2VNetwork.node[5].appl dataOnSch false
par V2VNetwork.node[5].appl dataUserPriority 7
par V2VNetwork.node[5].appl avoidBeaconSynchronization true
[...]
scalar V2VNetwork.node[28].veinsmobility totalCO2Emission 67.525478742889
par V2VNetwork.node[28] typename "\"org.car2x.veins.nodes.Car\""
par V2VNetwork.node[28] applType "\"MyVeinsApp\""
par V2VNetwork.node[28] nicType "\"Nic80211p\""
par V2VNetwork.node[28] veinsmobilityType "\"org.car2x.veins.modules.mobility.traci.TraCIMobility\""
par V2VNetwork.rsu[0].appl typename "\"org.car2x.veins.modules.application.traci.RSUApp\""
par V2VNetwork.rsu[0].appl headerLength 88bit
attr unit bit
par V2VNetwork.rsu[0].appl sendBeacons true
par V2VNetwork.rsu[0].appl beaconLengthBits 256bit
attr unit bit
par V2VNetwork.rsu[0].appl beaconUserPriority 7
par V2VNetwork.rsu[0].appl beaconInterval 1s
attr unit s
par V2VNetwork.rsu[0].appl dataLengthBits 1024bit
attr unit bit
par V2VNetwork.rsu[0].appl dataOnSch false
par V2VNetwork.rsu[0].appl dataUserPriority 7
par V2VNetwork.rsu[0].appl avoidBeaconSynchronization true
par V2VNetwork.rsu[0].appl sendWSA false
par V2VNetwork.rsu[0].appl wsaLengthBits 250bit
attr unit bit
par V2VNetwork.rsu[0].appl wsaInterval 1s
attr unit s
par V2VNetwork.rsu[0].appl internetAddress "\"cloud-server.com\""
par V2VNetwork.rsu[0].appl relayToInternet true
scalar V2VNetwork.rsu[0].appl generatedWSMs 0
scalar V2VNetwork.rsu[0].appl receivedWSMs 0
scalar V2VNetwork.rsu[0].appl generatedBSMs 50
scalar V2VNetwork.rsu[0].appl receivedBSMs 45
scalar V2VNetwork.rsu[0].appl generatedWSAs 0
scalar V2VNetwork.rsu[0].appl receivedWSAs 0
par V2VNetwork.rsu[0].nic.phy80211p typename "\"org.car2x.veins.modules.phy.PhyLayer80211p\""
par V2VNetwork.rsu[0].nic.phy80211p recordStats false
par V2VNetwork.rsu[0].nic.phy80211p usePropagationDelay true
par V2VNetwork.rsu[0].nic.phy80211p noiseFloor -98dBm
attr unit dBm
par V2VNetwork.rsu[0].nic.phy80211p useNoiseFloor true
par V2VNetwork.rsu[0].nic.phy80211p antenna "<root>...</root> at /home/lokesh/Downloads/omnetpp-6.2.0/minorproject/v2v/simulations/v2v//config.xml:34"
par V2VNetwork.rsu[0].nic.phy80211p antennaOffsetX 0m
attr unit m
par V2VNetwork.rsu[0].nic.phy80211p antennaOffsetY 0m
attr unit m
par V2VNetwork.rsu[0].nic.phy80211p antennaOffsetZ 8m
attr unit m
par V2VNetwork.rsu[0].nic.phy80211p antennaOffsetYaw 0rad
attr unit rad
par V2VNetwork.rsu[0].nic.phy80211p analogueModels "<root>...</root> at /home/lokesh/Downloads/omnetpp-6.2.0/minorproject/v2v/simulations/v2v//config.xml:34"
par V2VNetwork.rsu[0].nic.phy80211p decider "<root>...</root> at /home/lokesh/Downloads/omnetpp-6.2.0/minorproject/v2v/simulations/v2v//config.xml:34"
par V2VNetwork.rsu[0].nic.phy80211p minPowerLevel -110dBm
attr unit dBm
par V2VNetwork.rsu[0].nic.phy80211p timeRXToTX 0s
attr unit s
par V2VNetwork.rsu[0].nic.phy80211p timeRXToSleep 0s
attr unit s
par V2VNetwork.rsu[0].nic.phy80211p timeTXToRX 0s
attr unit s
par V2VNetwork.rsu[0].nic.phy80211p timeTXToSleep 0s
attr unit s
par V2VNetwork.rsu[0].nic.phy80211p timeSleepToRX 0s
attr unit s
par V2VNetwork.rsu[0].nic.phy80211p timeSleepToTX 0s
attr unit s
par V2VNetwork.rsu[0].nic.phy80211p initialRadioState 0
par V2VNetwork.rsu[0].nic.phy80211p radioMinAtt 1
par V2VNetwork.rsu[0].nic.phy80211p radioMaxAtt 0
par V2VNetwork.rsu[0].nic.phy80211p nbRadioChannels 1
par V2VNetwork.rsu[0].nic.phy80211p initialRadioChannel 0
par V2VNetwork.rsu[0].nic.phy80211p ccaThreshold -65dBm
attr unit dBm
par V2VNetwork.rsu[0].nic.phy80211p collectCollisionStatistics false
par V2VNetwork.rsu[0].nic.phy80211p allowTxDuringRx false
scalar V2VNetwork.rsu[0].nic.phy80211p busyTime 0.000208
par V2VNetwork.rsu[0].nic.mac1609_4 typename "\"org.car2x.veins.modules.mac.ieee80211p.Mac1609_4\""
par V2VNetwork.rsu[0].nic.mac1609_4 notAffectedByHostState false
par V2VNetwork.rsu[0].nic.mac1609_4 headerLength 0bit
attr unit bit
par V2VNetwork.rsu[0].nic.mac1609_4 address "\"auto\""
par V2VNetwork.rsu[0].nic.mac1609_4 useServiceChannel true
par V2VNetwork.rsu[0].nic.mac1609_4 serviceChannel 1
par V2VNetwork.rsu[0].nic.mac1609_4 bitrate 6000000bps
attr unit bps
par V2VNetwork.rsu[0].nic.mac1609_4 syncOffset 0.0003s
attr unit s
par V2VNetwork.rsu[0].nic.mac1609_4 txPower 20mW
attr unit mW
par V2VNetwork.rsu[0].nic.mac1609_4 queueSize 0
par V2VNetwork.rsu[0].nic.mac1609_4 dot11RTSThreshold 12000bit
attr unit bit
par V2VNetwork.rsu[0].nic.mac1609_4 dot11ShortRetryLimit 7
par V2VNetwork.rsu[0].nic.mac1609_4 dot11LongRetryLimit 4
par V2VNetwork.rsu[0].nic.mac1609_4 ackLength 112bit
attr unit bit
par V2VNetwork.rsu[0].nic.mac1609_4 useAcks false
par V2VNetwork.rsu[0].nic.mac1609_4 frameErrorRate 0
par V2VNetwork.rsu[0].nic.mac1609_4 ackErrorRate 0
scalar V2VNetwork.rsu[0].nic.mac1609_4 ReceivedUnicastPackets 0
scalar V2VNetwork.rsu[0].nic.mac1609_4 ReceivedBroadcasts 45
scalar V2VNetwork.rsu[0].nic.mac1609_4 SentPackets 50
scalar V2VNetwork.rsu[0].nic.mac1609_4 SentAcknowledgements 0
scalar V2VNetwork.rsu[0].nic.mac1609_4 RetriesExceeded 0
scalar V2VNetwork.rsu[0].nic.mac1609_4 SNIRLostPackets 55
scalar V2VNetwork.rsu[0].nic.mac1609_4 RXTXLostPackets 0
scalar V2VNetwork.rsu[0].nic.mac1609_4 TotalLostPackets 55
scalar V2VNetwork.rsu[0].nic.mac1609_4 DroppedPacketsInMac 0
scalar V2VNetwork.rsu[0].nic.mac1609_4 TooLittleTime 0
scalar V2VNetwork.rsu[0].nic.mac1609_4 TimesIntoBackoff 50
scalar V2VNetwork.rsu[0].nic.mac1609_4 SlotsBackoff 71
scalar V2VNetwork.rsu[0].nic.mac1609_4 NumInternalContention 0
scalar V2VNetwork.rsu[0].nic.mac1609_4 totalBusyTime 0.01565
scalar V2VNetwork.rsu[0].nic.mac1609_4 retriesExceeded:count 0
attr recordingmode count
attr source org_car2x_veins_modules_mac_sigRetriesExceeded
scalar V2VNetwork.rsu[0].nic.mac1609_4 sentAcks:count 0
attr recordingmode count
attr source org_car2x_veins_modules_mac_sigSentAck
scalar V2VNetwork.rsu[0].nic.mac1609_4 sentPackets:count 50
attr recordingmode count
attr source org_car2x_veins_modules_mac_sigSentPacket
scalar V2VNetwork.rsu[0].nic.mac1609_4 collisions:count 0
attr recordingmode count
attr source org_car2x_veins_modules_mac_sigCollision
scalar V2VNetwork.rsu[0].nic.mac1609_4 channelBusy:timeavg 0.000313
attr recordingmode timeavg
attr source org_car2x_veins_modules_mac_sigChannelBusy
par V2VNetwork.rsu[0].nic typename "\"org.car2x.veins.modules.nic.Nic80211p\""
par V2VNetwork.rsu[0].nic connectionManagerName "\"connectionManager\""
par V2VNetwork.rsu[0].mobility typename "\"org.car2x.veins.base.modules.BaseMobility\""
par V2VNetwork.rsu[0].mobility notAffectedByHostState true
par V2VNetwork.rsu[0].mobility x -100
par V2VNetwork.rsu[0].mobility y -100
par V2VNetwork.rsu[0].mobility z 0
par V2VNetwork.rsu[0].mobility xOrientation 1
par V2VNetwork.rsu[0].mobility yOrientation 0
par V2VNetwork.rsu[0].mobility zOrientation 0
par V2VNetwork.rsu[0] typename "\"org.car2x.veins.nodes.RSU\""
par V2VNetwork.rsu[0] applType "\"RSUApp\""
par V2VNetwork.rsu[0] nicType "\"Nic80211p\""
par V2VNetwork.rsu[1].appl typename "\"org.car2x.veins.modules.application.traci.RSUApp\""
par V2VNetwork.rsu[1].appl headerLength 88bit
attr unit bit
par V2VNetwork.rsu[1].appl sendBeacons true
par V2VNetwork.rsu[1].appl beaconLengthBits 256bit
attr unit bit
par V2VNetwork.rsu[1].appl beaconUserPriority 7
par V2VNetwork.rsu[1].appl beaconInterval 1s
attr unit s
par V2VNetwork.rsu[1].appl dataLengthBits 1024bit
attr unit bit
par V2VNetwork.rsu[1].appl dataOnSch false
par V2VNetwork.rsu[1].appl dataUserPriority 7
par V2VNetwork.rsu[1].appl avoidBeaconSynchronization true
par V2VNetwork.rsu[1].appl sendWSA false
par V2VNetwork.rsu[1].appl wsaLengthBits 250bit
attr unit bit
par V2VNetwork.rsu[1].appl wsaInterval 1s
attr unit s
par V2VNetwork.rsu[1].appl internetAddress "\"cloud-server.com\""
par V2VNetwork.rsu[1].appl relayToInternet true
scalar V2VNetwork.rsu[1].appl generatedWSMs 0
scalar V2VNetwork.rsu[1].appl receivedWSMs 0
scalar V2VNetwork.rsu[1].appl generatedBSMs 50
scalar V2VNetwork.rsu[1].appl receivedBSMs 0
scalar V2VNetwork.rsu[1].appl generatedWSAs 0
scalar V2VNetwork.rsu[1].appl receivedWSAs 0
par V2VNetwork.rsu[1].nic.phy80211p typename "\"org.car2x.veins.modules.phy.PhyLayer80211p\""
par V2VNetwork.rsu[1].nic.phy80211p recordStats false
par V2VNetwork.rsu[1].nic.phy80211p usePropagationDelay true
par V2VNetwork.rsu[1].nic.phy80211p noiseFloor -98dBm
attr unit dBm
par V2VNetwork.rsu[1].nic.phy80211p useNoiseFloor true
par V2VNetwork.rsu[1].nic.phy80211p antenna "<root>...</root> at /home/lokesh/Downloads/omnetpp-6.2.0/minorproject/v2v/simulations/v2v//config.xml:34"
par V2VNetwork.rsu[1].nic.phy80211p antennaOffsetX 0m
attr unit m
par V2VNetwork.rsu[1].nic.phy80211p antennaOffsetY 0m
attr unit m
par V2VNetwork.rsu[1].nic.phy80211p antennaOffsetZ 8m
attr unit m
par V2VNetwork.rsu[1].nic.phy80211p antennaOffsetYaw 0rad
attr unit rad
par V2VNetwork.rsu[1].nic.phy80211p analogueModels "<root>...</root> at /home/lokesh/Downloads/omnetpp-6.2.0/minorproject/v2v/simulations/v2v//config.xml:34"
par V2VNetwork.rsu[1].nic.phy80211p decider "<root>...</root> at /home/lokesh/Downloads/omnetpp-6.2.0/minorproject/v2v/simulations/v2v//config.xml:34"
par V2VNetwork.rsu[1].nic.phy80211p minPowerLevel -110dBm
attr unit dBm
par V2VNetwork.rsu[1].nic.phy80211p timeRXToTX 0s
attr unit s
par V2VNetwork.rsu[1].nic.phy80211p timeRXToSleep 0s
attr unit s
par V2VNetwork.rsu[1].nic.phy80211p timeTXToRX 0s
attr unit s
par V2VNetwork.rsu[1].nic.phy80211p timeTXToSleep 0s
attr unit s
par V2VNetwork.rsu[1].nic.phy80211p timeSleepToRX 0s
attr unit s
par V2VNetwork.rsu[1].nic.phy80211p timeSleepToTX 0s
attr unit s
par V2VNetwork.rsu[1].nic.phy80211p initialRadioState 0
par V2VNetwork.rsu[1].nic.phy80211p radioMinAtt 1
par V2VNetwork.rsu[1].nic.phy80211p radioMaxAtt 0
par V2VNetwork.rsu[1].nic.phy80211p nbRadioChannels 1
par V2VNetwork.rsu[1].nic.phy80211p initialRadioChannel 0
par V2VNetwork.rsu[1].nic.phy80211p ccaThreshold -65dBm
attr unit dBm
par V2VNetwork.rsu[1].nic.phy80211p collectCollisionStatistics false
par V2VNetwork.rsu[1].nic.phy80211p allowTxDuringRx false
scalar V2VNetwork.rsu[1].nic.phy80211p busyTime 0.0087745599999998
par V2VNetwork.rsu[1].nic.mac1609_4 typename "\"org.car2x.veins.modules.mac.ieee80211p.Mac1609_4\""
par V2VNetwork.rsu[1].nic.mac1609_4 notAffectedByHostState false
par V2VNetwork.rsu[1].nic.mac1609_4 headerLength 0bit
attr unit bit
par V2VNetwork.rsu[1].nic.mac1609_4 address "\"auto\""
par V2VNetwork.rsu[1].nic.mac1609_4 useServiceChannel true
par V2VNetwork.rsu[1].nic.mac1609_4 serviceChannel 1
par V2VNetwork.rsu[1].nic.mac1609_4 bitrate 6000000bps
attr unit bps
par V2VNetwork.rsu[1].nic.mac1609_4 syncOffset 0.0003s
attr unit s
par V2VNetwork.rsu[1].nic.mac1609_4 txPower 20mW
attr unit mW
par V2VNetwork.rsu[1].nic.mac1609_4 queueSize 0
par V2VNetwork.rsu[1].nic.mac1609_4 dot11RTSThreshold 12000bit
attr unit bit
par V2VNetwork.rsu[1].nic.mac1609_4 dot11ShortRetryLimit 7
par V2VNetwork.rsu[1].nic.mac1609_4 dot11LongRetryLimit 4
par V2VNetwork.rsu[1].nic.mac1609_4 ackLength 112bit
attr unit bit
par V2VNetwork.rsu[1].nic.mac1609_4 useAcks false
par V2VNetwork.rsu[1].nic.mac1609_4 frameErrorRate 0
par V2VNetwork.rsu[1].nic.mac1609_4 ackErrorRate 0
scalar V2VNetwork.rsu[1].nic.mac1609_4 ReceivedUnicastPackets 0
scalar V2VNetwork.rsu[1].nic.mac1609_4 ReceivedBroadcasts 0
scalar V2VNetwork.rsu[1].nic.mac1609_4 SentPackets 50
scalar V2VNetwork.rsu[1].nic.mac1609_4 SentAcknowledgements 0
scalar V2VNetwork.rsu[1].nic.mac1609_4 RetriesExceeded 0
scalar V2VNetwork.rsu[1].nic.mac1609_4 SNIRLostPackets 2083
scalar V2VNetwork.rsu[1].nic.mac1609_4 RXTXLostPackets 0
scalar V2VNetwork.rsu[1].nic.mac1609_4 TotalLostPackets 2083
scalar V2VNetwork.rsu[1].nic.mac1609_4 DroppedPacketsInMac 0
scalar V2VNetwork.rsu[1].nic.mac1609_4 TooLittleTime 0
scalar V2VNetwork.rsu[1].nic.mac1609_4 TimesIntoBackoff 50
scalar V2VNetwork.rsu[1].nic.mac1609_4 SlotsBackoff 71
scalar V2VNetwork.rsu[1].nic.mac1609_4 NumInternalContention 0
scalar V2VNetwork.rsu[1].nic.mac1609_4 totalBusyTime 0.244394
scalar V2VNetwork.rsu[1].nic.mac1609_4 retriesExceeded:count 0
attr recordingmode count
attr source org_car2x_veins_modules_mac_sigRetriesExceeded
scalar V2VNetwork.rsu[1].nic.mac1609_4 sentAcks:count 0
attr recordingmode count
attr source org_car2x_veins_modules_mac_sigSentAck
scalar V2VNetwork.rsu[1].nic.mac1609_4 sentPackets:count 50
attr recordingmode count
attr source org_car2x_veins_modules_mac_sigSentPacket
scalar V2VNetwork.rsu[1].nic.mac1609_4 collisions:count 0
attr recordingmode count
attr source org_car2x_veins_modules_mac_sigCollision
scalar V2VNetwork.rsu[1].nic.mac1609_4 channelBusy:timeavg 0.0048878799999999
attr recordingmode timeavg
attr source org_car2x_veins_modules_mac_sigChannelBusy
par V2VNetwork.rsu[1].nic typename "\"org.car2x.veins.modules.nic.Nic80211p\""
par V2VNetwork.rsu[1].nic connectionManagerName "\"connectionManager\""
par V2VNetwork.rsu[1].mobility typename "\"org.car2x.veins.base.modules.BaseMobility\""
par V2VNetwork.rsu[1].mobility notAffectedByHostState true
par V2VNetwork.rsu[1].mobility x -500
par V2VNetwork.rsu[1].mobility y -300
par V2VNetwork.rsu[1].mobility z 0
par V2VNetwork.rsu[1].mobility xOrientation 1
par V2VNetwork.rsu[1].mobility yOrientation 0
par V2VNetwork.rsu[1].mobility zOrientation 0
par V2VNetwork.rsu[1] typename "\"org.car2x.veins.nodes.RSU\""
par V2VNetwork.rsu[1] applType "\"RSUApp\""
par V2VNetwork.rsu[1] nicType "\"Nic80211p\""
par V2VNetwork.rsu[2].appl typename "\"org.car2x.veins.modules.application.traci.RSUApp\""
par V2VNetwork.rsu[2].appl headerLength 88bit
attr unit bit
par V2VNetwork.rsu[2].appl sendBeacons true
par V2VNetwork.rsu[2].appl beaconLengthBits 256bit
attr unit bit
par V2VNetwork.rsu[2].appl beaconUserPriority 7
par V2VNetwork.rsu[2].appl beaconInterval 1s
attr unit s
par V2VNetwork.rsu[2].appl dataLengthBits 1024bit
attr unit bit
par V2VNetwork.rsu[2].appl dataOnSch false
par V2VNetwork.rsu[2].appl dataUserPriority 7
par V2VNetwork.rsu[2].appl avoidBeaconSynchronization true
par V2VNetwork.rsu[2].appl sendWSA false
par V2VNetwork.rsu[2].appl wsaLengthBits 250bit
attr unit bit
par V2VNetwork.rsu[2].appl wsaInterval 1s
attr unit s
par V2VNetwork.rsu[2].appl internetAddress "\"cloud-server.com\""
par V2VNetwork.rsu[2].appl relayToInternet true
scalar V2VNetwork.rsu[2].appl generatedWSMs 0
scalar V2VNetwork.rsu[2].appl receivedWSMs 0
scalar V2VNetwork.rsu[2].appl generatedBSMs 50
scalar V2VNetwork.rsu[2].appl receivedBSMs 46
scalar V2VNetwork.rsu[2].appl generatedWSAs 0
scalar V2VNetwork.rsu[2].appl receivedWSAs 0
par V2VNetwork.rsu[2].nic.phy80211p typename "\"org.car2x.veins.modules.phy.PhyLayer80211p\""
par V2VNetwork.rsu[2].nic.phy80211p recordStats false
par V2VNetwork.rsu[2].nic.phy80211p usePropagationDelay true
par V2VNetwork.rsu[2].nic.phy80211p noiseFloor -98dBm
attr unit dBm
par V2VNetwork.rsu[2].nic.phy80211p useNoiseFloor true
par V2VNetwork.rsu[2].nic.phy80211p antenna "<root>...</root> at /home/lokesh/Downloads/omnetpp-6.2.0/minorproject/v2v/simulations/v2v//config.xml:34"
par V2VNetwork.rsu[2].nic.phy80211p antennaOffsetX 0m
attr unit m
par V2VNetwork.rsu[2].nic.phy80211p antennaOffsetY 0m
attr unit m
par V2VNetwork.rsu[2].nic.phy80211p antennaOffsetZ 8m
attr unit m
par V2VNetwork.rsu[2].nic.phy80211p antennaOffsetYaw 0rad
attr unit rad
par V2VNetwork.rsu[2].nic.phy80211p analogueModels "<root>...</root> at /home/lokesh/Downloads/omnetpp-6.2.0/minorproject/v2v/simulations/v2v//config.xml:34"
par V2VNetwork.rsu[2].nic.phy80211p decider "<root>...</root> at /home/lokesh/Downloads/omnetpp-6.2.0/minorproject/v2v/simulations/v2v//config.xml:34"
par V2VNetwork.rsu[2].nic.phy80211p minPowerLevel -110dBm
attr unit dBm
par V2VNetwork.rsu[2].nic.phy80211p timeRXToTX 0s
attr unit s
par V2VNetwork.rsu[2].nic.phy80211p timeRXToSleep 0s
attr unit s
par V2VNetwork.rsu[2].nic.phy80211p timeTXToRX 0s
attr unit s
par V2VNetwork.rsu[2].nic.phy80211p timeTXToSleep 0s
attr unit s
par V2VNetwork.rsu[2].nic.phy80211p timeSleepToRX 0s
attr unit s
par V2VNetwork.rsu[2].nic.phy80211p timeSleepToTX 0s
attr unit s
par V2VNetwork.rsu[2].nic.phy80211p initialRadioState 0
par V2VNetwork.rsu[2].nic.phy80211p radioMinAtt 1
par V2VNetwork.rsu[2].nic.phy80211p radioMaxAtt 0
par V2VNetwork.rsu[2].nic.phy80211p nbRadioChannels 1
par V2VNetwork.rsu[2].nic.phy80211p initialRadioChannel 0
par V2VNetwork.rsu[2].nic.phy80211p ccaThreshold -65dBm
attr unit dBm
par V2VNetwork.rsu[2].nic.phy80211p collectCollisionStatistics false
par V2VNetwork.rsu[2].nic.phy80211p allowTxDuringRx false
scalar V2VNetwork.rsu[2].nic.phy80211p busyTime 0.000208
par V2VNetwork.rsu[2].nic.mac1609_4 typename "\"org.car2x.veins.modules.mac.ieee80211p.Mac1609_4\""
par V2VNetwork.rsu[2].nic.mac1609_4 notAffectedByHostState false
par V2VNetwork.rsu[2].nic.mac1609_4 headerLength 0bit
attr unit bit
par V2VNetwork.rsu[2].nic.mac1609_4 address "\"auto\""
par V2VNetwork.rsu[2].nic.mac1609_4 useServiceChannel true
par V2VNetwork.rsu[2].nic.mac1609_4 serviceChannel 1
par V2VNetwork.rsu[2].nic.mac1609_4 bitrate 6000000bps
attr unit bps
par V2VNetwork.rsu[2].nic.mac1609_4 syncOffset 0.0003s
attr unit s
par V2VNetwork.rsu[2].nic.mac1609_4 txPower 20mW
attr unit mW
par V2VNetwork.rsu[2].nic.mac1609_4 queueSize 0
par V2VNetwork.rsu[2].nic.mac1609_4 dot11RTSThreshold 12000bit
attr unit bit
par V2VNetwork.rsu[2].nic.mac1609_4 dot11ShortRetryLimit 7
par V2VNetwork.rsu[2].nic.mac1609_4 dot11LongRetryLimit 4
par V2VNetwork.rsu[2].nic.mac1609_4 ackLength 112bit
attr unit bit
par V2VNetwork.rsu[2].nic.mac1609_4 useAcks false
par V2VNetwork.rsu[2].nic.mac1609_4 frameErrorRate 0
par V2VNetwork.rsu[2].nic.mac1609_4 ackErrorRate 0
scalar V2VNetwork.rsu[2].nic.mac1609_4 ReceivedUnicastPackets 0
scalar V2VNetwork.rsu[2].nic.mac1609_4 ReceivedBroadcasts 46
scalar V2VNetwork.rsu[2].nic.mac1609_4 SentPackets 50
scalar V2VNetwork.rsu[2].nic.mac1609_4 SentAcknowledgements 0
scalar V2VNetwork.rsu[2].nic.mac1609_4 RetriesExceeded 0
scalar V2VNetwork.rsu[2].nic.mac1609_4 SNIRLostPackets 54
scalar V2VNetwork.rsu[2].nic.mac1609_4 RXTXLostPackets 0
scalar V2VNetwork.rsu[2].nic.mac1609_4 TotalLostPackets 54
scalar V2VNetwork.rsu[2].nic.mac1609_4 DroppedPacketsInMac 0
scalar V2VNetwork.rsu[2].nic.mac1609_4 TooLittleTime 0
scalar V2VNetwork.rsu[2].nic.mac1609_4 TimesIntoBackoff 50
scalar V2VNetwork.rsu[2].nic.mac1609_4 SlotsBackoff 61
scalar V2VNetwork.rsu[2].nic.mac1609_4 NumInternalContention 0
scalar V2VNetwork.rsu[2].nic.mac1609_4 totalBusyTime 0.01565
scalar V2VNetwork.rsu[2].nic.mac1609_4 retriesExceeded:count 0
attr recordingmode count
attr source org_car2x_veins_modules_mac_sigRetriesExceeded
scalar V2VNetwork.rsu[2].nic.mac1609_4 sentAcks:count 0
attr recordingmode count
attr source org_car2x_veins_modules_mac_sigSentAck
scalar V2VNetwork.rsu[2].nic.mac1609_4 sentPackets:count 50
attr recordingmode count
attr source org_car2x_veins_modules_mac_sigSentPacket
scalar V2VNetwork.rsu[2].nic.mac1609_4 collisions:count 0
attr recordingmode count
attr source org_car2x_veins_modules_mac_sigCollision
scalar V2VNetwork.rsu[2].nic.mac1609_4 channelBusy:timeavg 0.000313
attr recordingmode timeavg
attr source org_car2x_veins_modules_mac_sigChannelBusy
par V2VNetwork.rsu[2].nic typename "\"org.car2x.veins.modules.nic.Nic80211p\""
par V2VNetwork.rsu[2].nic connectionManagerName "\"connectionManager\""
par V2VNetwork.rsu[2].mobility typename "\"org.car2x.veins.base.modules.BaseMobility\""
par V2VNetwork.rsu[2].mobility notAffectedByHostState true
par V2VNetwork.rsu[2].mobility x -300
par V2VNetwork.rsu[2].mobility y -500
par V2VNetwork.rsu[2].mobility z 0
par V2VNetwork.rsu[2].mobility xOrientation 1
par V2VNetwork.rsu[2].mobility yOrientation 0
par V2VNetwork.rsu[2].mobility zOrientation 0
par V2VNetwork.rsu[2] typename "\"org.car2x.veins.nodes.RSU\""
par V2VNetwork.rsu[2] applType "\"RSUApp\""
par V2VNetwork.rsu[2] nicType "\"Nic80211p\""
par V2VNetwork typename "\"v2v.simulations.v2v.V2VNetwork\""
par V2VNetwork playgroundSizeX 6000m
attr unit m
par V2VNetwork playgroundSizeY 6000m
attr unit m
par V2VNetwork playgroundSizeZ 50m
attr unit m
par V2VNetwork numVehicles 10
par V2VNetwork numRSUs 3

