version 3
run V2VWorking-0-20251105-19:22:40-27801
attr configname V2VWorking
attr datetime 20251105-19:22:40
attr datetimef 20251105-192240
attr experiment V2VWorking
attr inifile omnetpp.ini
attr iterationvars ""
attr iterationvarsd ""
attr iterationvarsf ""
attr measurement ""
attr network V2VNetwork
attr processid 27801
attr repetition 0
attr replication #0
attr resultdir results
attr runnumber 0
attr seedset 0
config image-path ../../../../samples/inet4.5/images:../../../../samples/veins/images
config network V2VNetwork
config *.manager.updateInterval 0.1s
config *.manager.penetrationRate 1.0
config *.manager.port 9999
config *.manager.host "\"localhost\""
config *.manager.launchConfig "xmldoc(\"sumo.launchd.xml\")"
config *.manager.autoShutdown true
config *.manager.useGui true
config *.numVehicles 29
config *.node[*].applType "\"MyVeinsApp\""
config *.node[*].appl.detectionEnabled false
config **.totalAttackers 14
config **.totalDefenders 15
config *.node[1..8].appl.malicious false
config *.node[1..8].appl.floodThreshold 3
config *.node[24..*].appl.malicious false
config *.node[24..*].appl.floodThreshold 3
config *.node[*].appl.beaconInterval 0.5s
config *.node[9..23].appl.malicious true
config *.node[9..23].appl.attackType "\"flood\""
config *.node[9..23].appl.attackInterval 2s
config *.connectionManager.sendDirect true
config *.connectionManager.maxInterfDist 2600m
config *.**.nic.mac1609_4.txPower 20mW
config *.**.nic.mac1609_4.bitrate 6Mbps
config *.**.nic.phy80211p.sensitivity -89dBm
config *.**.nic.phy80211p.maxTXPower 100mW
config *.**.nic.phy80211p.minPowerLevel -110dBm
config *.**.nic.phy80211p.antenna "xmldoc(\"config.xml\")"
config *.node[*].nic.phy80211p.antennaOffsetZ 1.5m
config *.**.nic.phy80211p.analogueModels "xmldoc(\"config.xml\")"
config *.**.nic.phy80211p.decider "xmldoc(\"config.xml\")"
config *.**.nic.phy80211p.usePropagationDelay true
config *.node[*].veinsmobility.x 0
config *.node[*].veinsmobility.y 0
config *.node[*].veinsmobility.z 0
config *.**.nic.phy80211p.useNoiseFloor true
config *.**.nic.phy80211p.noiseFloor -98dBm
config *.**.nic.phy80211p.thermalNoise -110dBm
config *.**.nic.phy80211p.snrThreshold 4.0dB
config *.playgroundSizeX 6000m
config *.playgroundSizeY 6000m
config *.playgroundSizeZ 50m
config *.numRSUs 3
config *.rsu[*].applType "\"RSUApp\""
config *.rsu[*].appl.internetAddress "\"cloud-server.com\""
config *.rsu[*].appl.relayToInternet true
config *.rsu[*].appl.detectionEnabled true
config *.rsu[0].mobility.x -100
config *.rsu[0].mobility.y -100
config *.rsu[0].mobility.z 0
config *.rsu[1].mobility.x -500
config *.rsu[1].mobility.y -300
config *.rsu[1].mobility.z 0
config *.rsu[2].mobility.x -300
config *.rsu[2].mobility.y -500
config *.rsu[2].mobility.z 0
config *.rsu[*].nic.phy80211p.antennaOffsetZ 8m
config *.rsu[*].nic.mac1609_4.txPower 50mW
config *.rsu[*].nic.phy80211p.sensitivity -85dBm
config cmdenv-express-mode true
config record-eventlog false
config *.scalar-recording true
config *.vector-recording false
config *.param-recording false
config *.bin-recording false
config **.cmdenv-log-level INFO
config cmdenv-log-prefix false
config **.debug false
config **.verbose false
config sim-time-limit 50s

scalar V2VNetwork.rsu[0].appl messagesRelayedToInternet 1
scalar V2VNetwork.rsu[2].appl messagesRelayedToInternet 1
scalar V2VNetwork.rsu[0].appl messagesRelayedToInternet 2
scalar V2VNetwork.rsu[2].appl messagesRelayedToInternet 2
scalar V2VNetwork.rsu[0].appl messagesRelayedToInternet 3
scalar V2VNetwork.rsu[2].appl messagesRelayedToInternet 3
scalar V2VNetwork.rsu[0].appl messagesRelayedToInternet 4
scalar V2VNetwork.rsu[2].appl messagesRelayedToInternet 4
scalar V2VNetwork.rsu[0].appl messagesRelayedToInternet 5
scalar V2VNetwork.rsu[2].appl messagesRelayedToInternet 5
scalar V2VNetwork.rsu[0].appl messagesRelayedToInternet 6
scalar V2VNetwork.rsu[0].appl messagesRelayedToInternet 7
scalar V2VNetwork.rsu[2].appl messagesRelayedToInternet 6
scalar V2VNetwork.rsu[0].appl messagesRelayedToInternet 8
scalar V2VNetwork.rsu[2].appl messagesRelayedToInternet 7
par V2VNetwork.node[20].appl typename "\"org.car2x.veins.modules.application.traci.MyVeinsApp\""
par V2VNetwork.node[20].appl headerLength 88bit
attr unit bit
par V2VNetwork.node[20].appl sendBeacons true
par V2VNetwork.node[20].appl beaconLengthBits 256bit
attr unit bit
par V2VNetwork.node[20].appl beaconUserPriority 7
par V2VNetwork.node[20].appl beaconInterval 0.5s
attr unit s
par V2VNetwork.node[20].appl dataLengthBits 1024bit
attr unit bit
par V2VNetwork.node[20].appl dataOnSch false
par V2VNetwork.node[20].appl dataUserPriority 7
par V2VNetwork.node[20].appl avoidBeaconSynchronization true
par V2VNetwork.node[20].appl sendWSA false
par V2VNetwork.node[20].appl wsaLengthBits 250bit
attr unit bit
par V2VNetwork.node[20].appl wsaInterval 1s
attr unit s
par V2VNetwork.node[20].appl appName "\"V2V Security App\""
par V2VNetwork.node[20].appl malicious true
par V2VNetwork.node[20].appl attackType "\"flood\""
par V2VNetwork.node[20].appl attackInterval 2s
attr unit s
par V2VNetwork.node[20].appl detectionEnabled false
par V2VNetwork.node[20].appl floodThreshold 3
par V2VNetwork.node[20].appl totalAttackers 14
par V2VNetwork.node[20].appl totalDefenders 15
scalar V2VNetwork.node[20].appl generatedWSMs 808
scalar V2VNetwork.node[20].appl receivedWSMs 0
scalar V2VNetwork.node[20].appl generatedBSMs 0
scalar V2VNetwork.node[20].appl receivedBSMs 0
scalar V2VNetwork.node[20].appl generatedWSAs 0
scalar V2VNetwork.node[20].appl receivedWSAs 0
par V2VNetwork.node[20].nic.phy80211p typename "\"org.car2x.veins.modules.phy.PhyLayer80211p\""
par V2VNetwork.node[20].nic.phy80211p recordStats false
par V2VNetwork.node[20].nic.phy80211p usePropagationDelay true
par V2VNetwork.node[20].nic.phy80211p noiseFloor -98dBm
attr unit dBm
par V2VNetwork.node[20].nic.phy80211p useNoiseFloor true
par V2VNetwork.node[20].nic.phy80211p antenna "<root>...</root> at /home/lokesh/Downloads/omnetpp-6.2.0/minorproject/v2v/simulations/v2v//config.xml:34"
par V2VNetwork.node[20].nic.phy80211p antennaOffsetX 0m
attr unit m
par V2VNetwork.node[20].nic.phy80211p antennaOffsetY 0m
attr unit m
par V2VNetwork.node[20].nic.phy80211p antennaOffsetZ 1.5m
attr unit m
par V2VNetwork.node[20].nic.phy80211p antennaOffsetYaw 0rad
attr unit rad
par V2VNetwork.node[20].nic.phy80211p analogueModels "<root>...</root> at /home/lokesh/Downloads/omnetpp-6.2.0/minorproject/v2v/simulations/v2v//config.xml:34"
par V2VNetwork.node[20].nic.phy80211p decider "<root>...</root> at /home/lokesh/Downloads/omnetpp-6.2.0/minorproject/v2v/simulations/v2v//config.xml:34"
par V2VNetwork.node[20].nic.phy80211p minPowerLevel -110dBm
attr unit dBm
par V2VNetwork.node[20].nic.phy80211p timeRXToTX 0s
attr unit s
par V2VNetwork.node[20].nic.phy80211p timeRXToSleep 0s
attr unit s
par V2VNetwork.node[20].nic.phy80211p timeTXToRX 0s
attr unit s
par V2VNetwork.node[20].nic.phy80211p timeTXToSleep 0s
attr unit s
par V2VNetwork.node[20].nic.phy80211p timeSleepToRX 0s
attr unit s
par V2VNetwork.node[20].nic.phy80211p timeSleepToTX 0s
attr unit s
par V2VNetwork.node[20].nic.phy80211p initialRadioState 0
par V2VNetwork.node[20].nic.phy80211p radioMinAtt 1
par V2VNetwork.node[20].nic.phy80211p radioMaxAtt 0
par V2VNetwork.node[20].nic.phy80211p nbRadioChannels 1
par V2VNetwork.node[20].nic.phy80211p initialRadioChannel 0
par V2VNetwork.node[20].nic.phy80211p ccaThreshold -65dBm
attr unit dBm
par V2VNetwork.node[20].nic.phy80211p collectCollisionStatistics false
par V2VNetwork.node[20].nic.phy80211p allowTxDuringRx false
scalar V2VNetwork.node[20].nic.phy80211p busyTime 0.142664
par V2VNetwork.node[20].nic.mac1609_4 typename "\"org.car2x.veins.modules.mac.ieee80211p.Mac1609_4\""
par V2VNetwork.node[20].nic.mac1609_4 notAffectedByHostState false
par V2VNetwork.node[20].nic.mac1609_4 headerLength 0bit
attr unit bit
par V2VNetwork.node[20].nic.mac1609_4 address "\"auto\""
par V2VNetwork.node[20].nic.mac1609_4 useServiceChannel true
par V2VNetwork.node[20].nic.mac1609_4 serviceChannel 1
par V2VNetwork.node[20].nic.mac1609_4 bitrate 6000000bps
attr unit bps
par V2VNetwork.node[20].nic.mac1609_4 syncOffset 0.0003s
attr unit s
par V2VNetwork.node[20].nic.mac1609_4 txPower 20mW
attr unit mW
par V2VNetwork.node[20].nic.mac1609_4 queueSize 0
par V2VNetwork.node[20].nic.mac1609_4 dot11RTSThreshold 12000bit
attr unit bit
par V2VNetwork.node[20].nic.mac1609_4 dot11ShortRetryLimit 7
par V2VNetwork.node[20].nic.mac1609_4 dot11LongRetryLimit 4
par V2VNetwork.node[20].nic.mac1609_4 ackLength 112bit
attr unit bit
par V2VNetwork.node[20].nic.mac1609_4 useAcks false
par V2VNetwork.node[20].nic.mac1609_4 frameErrorRate 0
par V2VNetwork.node[20].nic.mac1609_4 ackErrorRate 0
scalar V2VNetwork.node[20].nic.mac1609_4 ReceivedUnicastPackets 0
scalar V2VNetwork.node[20].nic.mac1609_4 ReceivedBroadcasts 123
scalar V2VNetwork.node[20].nic.mac1609_4 SentPackets 608
scalar V2VNetwork.node[20].nic.mac1609_4 SentAcknowledgements 0
scalar V2VNetwork.node[20].nic.mac1609_4 RetriesExceeded 0
scalar V2VNetwork.node[20].nic.mac1609_4 SNIRLostPackets 5165
scalar V2VNetwork.node[20].nic.mac1609_4 RXTXLostPackets 3338
scalar V2VNetwork.node[20].nic.mac1609_4 TotalLostPackets 8503
scalar V2VNetwork.node[20].nic.mac1609_4 DroppedPacketsInMac 0
scalar V2VNetwork.node[20].nic.mac1609_4 TooLittleTime 28
scalar V2VNetwork.node[20].nic.mac1609_4 TimesIntoBackoff 624
scalar V2VNetwork.node[20].nic.mac1609_4 SlotsBackoff 908
scalar V2VNetwork.node[20].nic.mac1609_4 NumInternalContention 0
scalar V2VNetwork.node[20].nic.mac1609_4 totalBusyTime 0.366223698894
scalar V2VNetwork.node[20].nic.mac1609_4 retriesExceeded:count 0
attr recordingmode count
attr source org_car2x_veins_modules_mac_sigRetriesExceeded
scalar V2VNetwork.node[20].nic.mac1609_4 sentAcks:count 0
attr recordingmode count
attr source org_car2x_veins_modules_mac_sigSentAck
scalar V2VNetwork.node[20].nic.mac1609_4 sentPackets:count 608
attr recordingmode count
attr source org_car2x_veins_modules_mac_sigSentPacket
scalar V2VNetwork.node[20].nic.mac1609_4 collisions:count 0
attr recordingmode count
attr source org_car2x_veins_modules_mac_sigCollision
scalar V2VNetwork.node[20].nic.mac1609_4 channelBusy:timeavg 0.04569696236175
attr recordingmode timeavg
attr source org_car2x_veins_modules_mac_sigChannelBusy
par V2VNetwork.node[20].nic typename "\"org.car2x.veins.modules.nic.Nic80211p\""
par V2VNetwork.node[20].nic connectionManagerName "\"connectionManager\""
par V2VNetwork.node[20].veinsmobility typename "\"org.car2x.veins.modules.mobility.traci.TraCIMobility\""
par V2VNetwork.node[20].veinsmobility notAffectedByHostState true
par V2VNetwork.node[20].veinsmobility x 0
par V2VNetwork.node[20].veinsmobility y 0
par V2VNetwork.node[20].veinsmobility z 0
par V2VNetwork.node[20].veinsmobility xOrientation 1
par V2VNetwork.node[20].veinsmobility yOrientation 0
par V2VNetwork.node[20].veinsmobility zOrientation 0
par V2VNetwork.node[20].veinsmobility hostPositionOffset 0m
attr unit m
par V2VNetwork.node[20].veinsmobility setHostSpeed false
par V2VNetwork.node[20].veinsmobility accidentCount 0
par V2VNetwork.node[20].veinsmobility accidentStart 33.5618s
attr unit s
par V2VNetwork.node[20].veinsmobility accidentDuration "uniform(30s, 60s)"
attr unit s
par V2VNetwork.node[20].veinsmobility accidentInterval "uniform(30s, 60s)"
attr unit s
scalar V2VNetwork.node[20].veinsmobility startTime 0.1
scalar V2VNetwork.node[20].veinsmobility totalTime 7.9
scalar V2VNetwork.node[20].veinsmobility stopTime 8.1
scalar V2VNetwork.node[20].veinsmobility minSpeed 0
scalar V2VNetwork.node[20].veinsmobility maxSpeed 9.8357640556116
scalar V2VNetwork.node[20].veinsmobility totalDistance 37.632937465221
scalar V2VNetwork.node[20].veinsmobility totalCO2Emission 25.667548599772
par V2VNetwork.node[20] typename "\"org.car2x.veins.nodes.Car\""
par V2VNetwork.node[20] applType "\"MyVeinsApp\""
par V2VNetwork.node[20] nicType "\"Nic80211p\""
par V2VNetwork.node[20] veinsmobilityType "\"org.car2x.veins.modules.mobility.traci.TraCIMobility\""
scalar V2VNetwork.rsu[0].appl messagesRelayedToInternet 9
scalar V2VNetwork.rsu[2].appl messagesRelayedToInternet 8
scalar V2VNetwork.rsu[0].appl messagesRelayedToInternet 10
scalar V2VNetwork.rsu[2].appl messagesRelayedToInternet 9
scalar V2VNetwork.rsu[0].appl messagesRelayedToInternet 11
scalar V2VNetwork.rsu[2].appl messagesRelayedToInternet 10
scalar V2VNetwork.rsu[0].appl messagesRelayedToInternet 12
scalar V2VNetwork.rsu[2].appl messagesRelayedToInternet 11
scalar V2VNetwork.rsu[0].appl messagesRelayedToInternet 13
scalar V2VNetwork.rsu[2].appl messagesRelayedToInternet 12
scalar V2VNetwork.rsu[0].appl messagesRelayedToInternet 14
scalar V2VNetwork.rsu[2].appl messagesRelayedToInternet 13
scalar V2VNetwork.rsu[0].appl messagesRelayedToInternet 15
scalar V2VNetwork.rsu[2].appl messagesRelayedToInternet 14
scalar V2VNetwork.rsu[0].appl messagesRelayedToInternet 16
scalar V2VNetwork.rsu[2].appl messagesRelayedToInternet 15
scalar V2VNetwork.rsu[0].appl messagesRelayedToInternet 17
scalar V2VNetwork.rsu[2].appl messagesRelayedToInternet 16
scalar V2VNetwork.rsu[0].appl messagesRelayedToInternet 18
scalar V2VNetwork.rsu[2].appl messagesRelayedToInternet 17
scalar V2VNetwork.rsu[0].appl messagesRelayedToInternet 19
scalar V2VNetwork.rsu[2].appl messagesRelayedToInternet 18
scalar V2VNetwork.rsu[0].appl messagesRelayedToInternet 20
scalar V2VNetwork.rsu[2].appl messagesRelayedToInternet 19
scalar V2VNetwork.rsu[0].appl messagesRelayedToInternet 21
scalar V2VNetwork.rsu[2].appl messagesRelayedToInternet 20
scalar V2VNetwork.rsu[0].appl messagesRelayedToInternet 22
scalar V2VNetwork.rsu[2].appl messagesRelayedToInternet 21
scalar V2VNetwork.rsu[0].appl messagesRelayedToInternet 23
scalar V2VNetwork.rsu[2].appl messagesRelayedToInternet 22
scalar V2VNetwork.rsu[0].appl messagesRelayedToInternet 24
scalar V2VNetwork.rsu[2].appl messagesRelayedToInternet 23
scalar V2VNetwork.rsu[0].appl messagesRelayedToInternet 25
scalar V2VNetwork.rsu[2].appl messagesRelayedToInternet 24
scalar V2VNetwork.rsu[0].appl messagesRelayedToInternet 26
scalar V2VNetwork.rsu[2].appl messagesRelayedToInternet 25
scalar V2VNetwork.rsu[0].appl messagesRelayedToInternet 27
scalar V2VNetwork.rsu[2].appl messagesRelayedToInternet 26
scalar V2VNetwork.rsu[0].appl messagesRelayedToInternet 28
scalar V2VNetwork.rsu[2].appl messagesRelayedToInternet 27
scalar V2VNetwork.rsu[0].appl messagesRelayedToInternet 29
scalar V2VNetwork.rsu[2].appl messagesRelayedToInternet 28
scalar V2VNetwork.rsu[0].appl messagesRelayedToInternet 30
scalar V2VNetwork.rsu[0].appl messagesRelayedToInternet 31
scalar V2VNetwork.rsu[2].appl messagesRelayedToInternet 29
par V2VNetwork.node[2].appl typename "\"org.car2x.veins.modules.application.traci.MyVeinsApp\""
par V2VNetwork.node[2].appl headerLength 88bit
attr unit bit
par V2VNetwork.node[2].appl sendBeacons true
par V2VNetwork.node[2].appl beaconLengthBits 256bit
attr unit bit
par V2VNetwork.node[2].appl beaconUserPriority 7
par V2VNetwork.node[2].appl beaconInterval 0.5s
attr unit s
par V2VNetwork.node[2].appl dataLengthBits 1024bit
attr unit bit
par V2VNetwork.node[2].appl dataOnSch false
par V2VNetwork.node[2].appl dataUserPriority 7
par V2VNetwork.node[2].appl avoidBeaconSynchronization true
par V2VNetwork.node[2].appl sendWSA false
par V2VNetwork.node[2].appl wsaLengthBits 250bit
attr unit bit
par V2VNetwork.node[2].appl wsaInterval 1s
attr unit s
par V2VNetwork.node[2].appl appName "\"V2V Security App\""
par V2VNetwork.node[2].appl malicious false
par V2VNetwork.node[2].appl attackType "\"none\""
par V2VNetwork.node[2].appl attackInterval 2s
attr unit s
par V2VNetwork.node[2].appl detectionEnabled false
par V2VNetwork.node[2].appl floodThreshold 3
par V2VNetwork.node[2].appl totalAttackers 14
par V2VNetwork.node[2].appl totalDefenders 15
scalar V2VNetwork.node[2].appl generatedWSMs 31
scalar V2VNetwork.node[2].appl receivedWSMs 0
scalar V2VNetwork.node[2].appl generatedBSMs 0
scalar V2VNetwork.node[2].appl receivedBSMs 0
scalar V2VNetwork.node[2].appl generatedWSAs 0
scalar V2VNetwork.node[2].appl receivedWSAs 0
par V2VNetwork.node[2].nic.phy80211p typename "\"org.car2x.veins.modules.phy.PhyLayer80211p\""
par V2VNetwork.node[2].nic.phy80211p recordStats false
par V2VNetwork.node[2].nic.phy80211p usePropagationDelay true
par V2VNetwork.node[2].nic.phy80211p noiseFloor -98dBm
attr unit dBm
par V2VNetwork.node[2].nic.phy80211p useNoiseFloor true
par V2VNetwork.node[2].nic.phy80211p antenna "<root>...</root> at /home/lokesh/Downloads/omnetpp-6.2.0/minorproject/v2v/simulations/v2v//config.xml:34"
par V2VNetwork.node[2].nic.phy80211p antennaOffsetX 0m
attr unit m
par V2VNetwork.node[2].nic.phy80211p antennaOffsetY 0m
attr unit m
par V2VNetwork.node[2].nic.phy80211p antennaOffsetZ 1.5m
attr unit m
par V2VNetwork.node[2].nic.phy80211p antennaOffsetYaw 0rad
attr unit rad
par V2VNetwork.node[2].nic.phy80211p analogueModels "<root>...</root> at /home/lokesh/Downloads/omnetpp-6.2.0/minorproject/v2v/simulations/v2v//config.xml:34"
par V2VNetwork.node[2].nic.phy80211p decider "<root>...</root> at /home/lokesh/Downloads/omnetpp-6.2.0/minorproject/v2v/simulations/v2v//config.xml:34"
par V2VNetwork.node[2].nic.phy80211p minPowerLevel -110dBm
attr unit dBm
par V2VNetwork.node[2].nic.phy80211p timeRXToTX 0s
attr unit s
par V2VNetwork.node[2].nic.phy80211p timeRXToSleep 0s
attr unit s
par V2VNetwork.node[2].nic.phy80211p timeTXToRX 0s
attr unit s
par V2VNetwork.node[2].nic.phy80211p timeTXToSleep 0s
attr unit s
par V2VNetwork.node[2].nic.phy80211p timeSleepToRX 0s
attr unit s
par V2VNetwork.node[2].nic.phy80211p timeSleepToTX 0s
attr unit s
par V2VNetwork.node[2].nic.phy80211p initialRadioState 0
par V2VNetwork.node[2].nic.phy80211p radioMinAtt 1
par V2VNetwork.node[2].nic.phy80211p radioMaxAtt 0
par V2VNetwork.node[2].nic.phy80211p nbRadioChannels 1
par V2VNetwork.node[2].nic.phy80211p initialRadioChannel 0
par V2VNetwork.node[2].nic.phy80211p ccaThreshold -65dBm
attr unit dBm
par V2VNetwork.node[2].nic.phy80211p collectCollisionStatistics false
par V2VNetwork.node[2].nic.phy80211p allowTxDuringRx false
scalar V2VNetwork.node[2].nic.phy80211p busyTime 0.30276877419354
par V2VNetwork.node[2].nic.mac1609_4 typename "\"org.car2x.veins.modules.mac.ieee80211p.Mac1609_4\""
par V2VNetwork.node[2].nic.mac1609_4 notAffectedByHostState false
par V2VNetwork.node[2].nic.mac1609_4 headerLength 0bit
attr unit bit
par V2VNetwork.node[2].nic.mac1609_4 address "\"auto\""
par V2VNetwork.node[2].nic.mac1609_4 useServiceChannel true
par V2VNetwork.node[2].nic.mac1609_4 serviceChannel 1
par V2VNetwork.node[2].nic.mac1609_4 bitrate 6000000bps
attr unit bps
par V2VNetwork.node[2].nic.mac1609_4 syncOffset 0.0003s
attr unit s
par V2VNetwork.node[2].nic.mac1609_4 txPower 20mW
attr unit mW
par V2VNetwork.node[2].nic.mac1609_4 queueSize 0
par V2VNetwork.node[2].nic.mac1609_4 dot11RTSThreshold 12000bit
attr unit bit
par V2VNetwork.node[2].nic.mac1609_4 dot11ShortRetryLimit 7
par V2VNetwork.node[2].nic.mac1609_4 dot11LongRetryLimit 4
par V2VNetwork.node[2].nic.mac1609_4 ackLength 112bit
attr unit bit
par V2VNetwork.node[2].nic.mac1609_4 useAcks false
par V2VNetwork.node[2].nic.mac1609_4 frameErrorRate 0
par V2VNetwork.node[2].nic.mac1609_4 ackErrorRate 0
scalar V2VNetwork.node[2].nic.mac1609_4 ReceivedUnicastPackets 0
scalar V2VNetwork.node[2].nic.mac1609_4 ReceivedBroadcasts 1263
scalar V2VNetwork.node[2].nic.mac1609_4 SentPackets 31
scalar V2VNetwork.node[2].nic.mac1609_4 SentAcknowledgements 0
scalar V2VNetwork.node[2].nic.mac1609_4 RetriesExceeded 0
scalar V2VNetwork.node[2].nic.mac1609_4 SNIRLostPackets 42206
scalar V2VNetwork.node[2].nic.mac1609_4 RXTXLostPackets 1
scalar V2VNetwork.node[2].nic.mac1609_4 TotalLostPackets 42207
scalar V2VNetwork.node[2].nic.mac1609_4 DroppedPacketsInMac 0
scalar V2VNetwork.node[2].nic.mac1609_4 TooLittleTime 0
scalar V2VNetwork.node[2].nic.mac1609_4 TimesIntoBackoff 62
scalar V2VNetwork.node[2].nic.mac1609_4 SlotsBackoff 46
scalar V2VNetwork.node[2].nic.mac1609_4 NumInternalContention 0
scalar V2VNetwork.node[2].nic.mac1609_4 totalBusyTime 1.787317507496
scalar V2VNetwork.node[2].nic.mac1609_4 retriesExceeded:count 0
attr recordingmode count
attr source org_car2x_veins_modules_mac_sigRetriesExceeded
scalar V2VNetwork.node[2].nic.mac1609_4 sentAcks:count 0
attr recordingmode count
attr source org_car2x_veins_modules_mac_sigSentAck
scalar V2VNetwork.node[2].nic.mac1609_4 sentPackets:count 31
attr recordingmode count
attr source org_car2x_veins_modules_mac_sigSentPacket
scalar V2VNetwork.node[2].nic.mac1609_4 collisions:count 0
attr recordingmode count
attr source org_car2x_veins_modules_mac_sigCollision
scalar V2VNetwork.node[2].nic.mac1609_4 channelBusy:timeavg 0.057523016370837
attr recordingmode timeavg
attr source org_car2x_veins_modules_mac_sigChannelBusy
par V2VNetwork.node[2].nic typename "\"org.car2x.veins.modules.nic.Nic80211p\""
par V2VNetwork.node[2].nic connectionManagerName "\"connectionManager\""
par V2VNetwork.node[2].veinsmobility typename "\"org.car2x.veins.modules.mobility.traci.TraCIMobility\""
par V2VNetwork.node[2].veinsmobility notAffectedByHostState true
par V2VNetwork.node[2].veinsmobility x 0
par V2VNetwork.node[2].veinsmobility y 0
par V2VNetwork.node[2].veinsmobility z 0
par V2VNetwork.node[2].veinsmobility xOrientation 1
par V2VNetwork.node[2].veinsmobility yOrientation 0
par V2VNetwork.node[2].veinsmobility zOrientation 0
par V2VNetwork.node[2].veinsmobility hostPositionOffset 0m
attr unit m
par V2VNetwork.node[2].veinsmobility setHostSpeed false
par V2VNetwork.node[2].veinsmobility accidentCount 0
par V2VNetwork.node[2].veinsmobility accidentStart 30.6066s
attr unit s
par V2VNetwork.node[2].veinsmobility accidentDuration "uniform(30s, 60s)"
attr unit s
par V2VNetwork.node[2].veinsmobility accidentInterval "uniform(30s, 60s)"
attr unit s
scalar V2VNetwork.node[2].veinsmobility startTime 0.1
scalar V2VNetwork.node[2].veinsmobility totalTime 30.9
scalar V2VNetwork.node[2].veinsmobility stopTime 31.1
scalar V2VNetwork.node[2].veinsmobility minSpeed 0
scalar V2VNetwork.node[2].veinsmobility maxSpeed 12.931635524387
scalar V2VNetwork.node[2].veinsmobility totalDistance 244.35900970833
scalar V2VNetwork.node[2].veinsmobility totalCO2Emission 96.449428268631
par V2VNetwork.node[2] typename "\"org.car2x.veins.nodes.Car\""
par V2VNetwork.node[2] applType "\"MyVeinsApp\""
par V2VNetwork.node[2] nicType "\"Nic80211p\""
par V2VNetwork.node[2] veinsmobilityType "\"org.car2x.veins.modules.mobility.traci.TraCIMobility\""
scalar V2VNetwork.rsu[0].appl messagesRelayedToInternet 32
scalar V2VNetwork.rsu[2].appl messagesRelayedToInternet 30
scalar V2VNetwork.rsu[0].appl messagesRelayedToInternet 33
scalar V2VNetwork.rsu[2].appl messagesRelayedToInternet 31
scalar V2VNetwork.rsu[0].appl messagesRelayedToInternet 34
scalar V2VNetwork.rsu[2].appl messagesRelayedToInternet 32
scalar V2VNetwork.rsu[0].appl messagesRelayedToInternet 35
scalar V2VNetwork.rsu[2].appl messagesRelayedToInternet 33
par V2VNetwork.node[4].appl typename "\"org.car2x.veins.modules.application.traci.MyVeinsApp\""
par V2VNetwork.node[4].appl headerLength 88bit
attr unit bit
par V2VNetwork.node[4].appl sendBeacons true
par V2VNetwork.node[4].appl beaconLengthBits 256bit
attr unit bit
par V2VNetwork.node[4].appl beaconUserPriority 7
par V2VNetwork.node[4].appl beaconInterval 0.5s
attr unit s
par V2VNetwork.node[4].appl dataLengthBits 1024bit
attr unit bit
par V2VNetwork.node[4].appl dataOnSch false
par V2VNetwork.node[4].appl dataUserPriority 7
par V2VNetwork.node[4].appl avoidBeaconSynchronization true
par V2VNetwork.node[4].appl sendWSA false
par V2VNetwork.node[4].appl wsaLengthBits 250bit
attr unit bit
par V2VNetwork.node[4].appl wsaInterval 1s
attr unit s
par V2VNetwork.node[4].appl appName "\"V2V Security App\""
par V2VNetwork.node[4].appl malicious false
par V2VNetwork.node[4].appl attackType "\"none\""
par V2VNetwork.node[4].appl attackInterval 2s
attr unit s
par V2VNetwork.node[4].appl detectionEnabled false
par V2VNetwork.node[4].appl floodThreshold 3
par V2VNetwork.node[4].appl totalAttackers 14
par V2VNetwork.node[4].appl totalDefenders 15
scalar V2VNetwork.node[4].appl generatedWSMs 35
scalar V2VNetwork.node[4].appl receivedWSMs 0
scalar V2VNetwork.node[4].appl generatedBSMs 0
scalar V2VNetwork.node[4].appl receivedBSMs 0
scalar V2VNetwork.node[4].appl generatedWSAs 0
scalar V2VNetwork.node[4].appl receivedWSAs 0
par V2VNetwork.node[4].nic.phy80211p typename "\"org.car2x.veins.modules.phy.PhyLayer80211p\""
par V2VNetwork.node[4].nic.phy80211p recordStats false
par V2VNetwork.node[4].nic.phy80211p usePropagationDelay true
par V2VNetwork.node[4].nic.phy80211p noiseFloor -98dBm
attr unit dBm
par V2VNetwork.node[4].nic.phy80211p useNoiseFloor true
par V2VNetwork.node[4].nic.phy80211p antenna "<root>...</root> at /home/lokesh/Downloads/omnetpp-6.2.0/minorproject/v2v/simulations/v2v//config.xml:34"
par V2VNetwork.node[4].nic.phy80211p antennaOffsetX 0m
attr unit m
par V2VNetwork.node[4].nic.phy80211p antennaOffsetY 0m
attr unit m
par V2VNetwork.node[4].nic.phy80211p antennaOffsetZ 1.5m
attr unit m
par V2VNetwork.node[4].nic.phy80211p antennaOffsetYaw 0rad
attr unit rad
par V2VNetwork.node[4].nic.phy80211p analogueModels "<root>...</root> at /home/lokesh/Downloads/omnetpp-6.2.0/minorproject/v2v/simulations/v2v//config.xml:34"
par V2VNetwork.node[4].nic.phy80211p decider "<root>...</root> at /home/lokesh/Downloads/omnetpp-6.2.0/minorproject/v2v/simulations/v2v//config.xml:34"
par V2VNetwork.node[4].nic.phy80211p minPowerLevel -110dBm
attr unit dBm
par V2VNetwork.node[4].nic.phy80211p timeRXToTX 0s
attr unit s
par V2VNetwork.node[4].nic.phy80211p timeRXToSleep 0s
attr unit s
par V2VNetwork.node[4].nic.phy80211p timeTXToRX 0s
attr unit s
par V2VNetwork.node[4].nic.phy80211p timeTXToSleep 0s
attr unit s
par V2VNetwork.node[4].nic.phy80211p timeSleepToRX 0s
attr unit s
par V2VNetwork.node[4].nic.phy80211p timeSleepToTX 0s
attr unit s
par V2VNetwork.node[4].nic.phy80211p initialRadioState 0
par V2VNetwork.node[4].nic.phy80211p radioMinAtt 1
par V2VNetwork.node[4].nic.phy80211p radioMaxAtt 0
par V2VNetwork.node[4].nic.phy80211p nbRadioChannels 1
par V2VNetwork.node[4].nic.phy80211p initialRadioChannel 0
par V2VNetwork.node[4].nic.phy80211p ccaThreshold -65dBm
attr unit dBm
par V2VNetwork.node[4].nic.phy80211p collectCollisionStatistics false
par V2VNetwork.node[4].nic.phy80211p allowTxDuringRx false
scalar V2VNetwork.node[4].nic.phy80211p busyTime 0.30262582857142
par V2VNetwork.node[4].nic.mac1609_4 typename "\"org.car2x.veins.modules.mac.ieee80211p.Mac1609_4\""
par V2VNetwork.node[4].nic.mac1609_4 notAffectedByHostState false
par V2VNetwork.node[4].nic.mac1609_4 headerLength 0bit
attr unit bit
par V2VNetwork.node[4].nic.mac1609_4 address "\"auto\""
par V2VNetwork.node[4].nic.mac1609_4 useServiceChannel true
par V2VNetwork.node[4].nic.mac1609_4 serviceChannel 1
par V2VNetwork.node[4].nic.mac1609_4 bitrate 6000000bps
attr unit bps
par V2VNetwork.node[4].nic.mac1609_4 syncOffset 0.0003s
attr unit s
par V2VNetwork.node[4].nic.mac1609_4 txPower 20mW
attr unit mW
par V2VNetwork.node[4].nic.mac1609_4 queueSize 0
par V2VNetwork.node[4].nic.mac1609_4 dot11RTSThreshold 12000bit
attr unit bit
par V2VNetwork.node[4].nic.mac1609_4 dot11ShortRetryLimit 7
par V2VNetwork.node[4].nic.mac1609_4 dot11LongRetryLimit 4
par V2VNetwork.node[4].nic.mac1609_4 ackLength 112bit
attr unit bit
par V2VNetwork.node[4].nic.mac1609_4 useAcks false
par V2VNetwork.node[4].nic.mac1609_4 frameErrorRate 0
par V2VNetwork.node[4].nic.mac1609_4 ackErrorRate 0
scalar V2VNetwork.node[4].nic.mac1609_4 ReceivedUnicastPackets 0
scalar V2VNetwork.node[4].nic.mac1609_4 ReceivedBroadcasts 3507
scalar V2VNetwork.node[4].nic.mac1609_4 SentPackets 35
scalar V2VNetwork.node[4].nic.mac1609_4 SentAcknowledgements 0
scalar V2VNetwork.node[4].nic.mac1609_4 RetriesExceeded 0
scalar V2VNetwork.node[4].nic.mac1609_4 SNIRLostPackets 45541
scalar V2VNetwork.node[4].nic.mac1609_4 RXTXLostPackets 117
scalar V2VNetwork.node[4].nic.mac1609_4 TotalLostPackets 45658
scalar V2VNetwork.node[4].nic.mac1609_4 DroppedPacketsInMac 0
scalar V2VNetwork.node[4].nic.mac1609_4 TooLittleTime 0
scalar V2VNetwork.node[4].nic.mac1609_4 TimesIntoBackoff 70
scalar V2VNetwork.node[4].nic.mac1609_4 SlotsBackoff 53
scalar V2VNetwork.node[4].nic.mac1609_4 NumInternalContention 0
scalar V2VNetwork.node[4].nic.mac1609_4 totalBusyTime 2.025455816893
scalar V2VNetwork.node[4].nic.mac1609_4 retriesExceeded:count 0
attr recordingmode count
attr source org_car2x_veins_modules_mac_sigRetriesExceeded
scalar V2VNetwork.node[4].nic.mac1609_4 sentAcks:count 0
attr recordingmode count
attr source org_car2x_veins_modules_mac_sigSentAck
scalar V2VNetwork.node[4].nic.mac1609_4 sentPackets:count 35
attr recordingmode count
attr source org_car2x_veins_modules_mac_sigSentPacket
scalar V2VNetwork.node[4].nic.mac1609_4 collisions:count 0
attr recordingmode count
attr source org_car2x_veins_modules_mac_sigCollision
scalar V2VNetwork.node[4].nic.mac1609_4 channelBusy:timeavg 0.05773439476837
attr recordingmode timeavg
attr source org_car2x_veins_modules_mac_sigChannelBusy
par V2VNetwork.node[4].nic typename "\"org.car2x.veins.modules.nic.Nic80211p\""
par V2VNetwork.node[4].nic connectionManagerName "\"connectionManager\""
par V2VNetwork.node[4].veinsmobility typename "\"org.car2x.veins.modules.mobility.traci.TraCIMobility\""
par V2VNetwork.node[4].veinsmobility notAffectedByHostState true
par V2VNetwork.node[4].veinsmobility x 0
par V2VNetwork.node[4].veinsmobility y 0
par V2VNetwork.node[4].veinsmobility z 0
par V2VNetwork.node[4].veinsmobility xOrientation 1
par V2VNetwork.node[4].veinsmobility yOrientation 0
par V2VNetwork.node[4].veinsmobility zOrientation 0
par V2VNetwork.node[4].veinsmobility hostPositionOffset 0m
attr unit m
par V2VNetwork.node[4].veinsmobility setHostSpeed false
par V2VNetwork.node[4].veinsmobility accidentCount 0
par V2VNetwork.node[4].veinsmobility accidentStart 53.4159s
attr unit s
par V2VNetwork.node[4].veinsmobility accidentDuration "uniform(30s, 60s)"
attr unit s
par V2VNetwork.node[4].veinsmobility accidentInterval "uniform(30s, 60s)"
attr unit s
scalar V2VNetwork.node[4].veinsmobility startTime 0.1
scalar V2VNetwork.node[4].veinsmobility totalTime 34.9
scalar V2VNetwork.node[4].veinsmobility stopTime 35.1
scalar V2VNetwork.node[4].veinsmobility minSpeed 0
scalar V2VNetwork.node[4].veinsmobility maxSpeed 20.891296314129
scalar V2VNetwork.node[4].veinsmobility totalDistance 335.28947547804
scalar V2VNetwork.node[4].veinsmobility totalCO2Emission 161.55719023119
par V2VNetwork.node[4] typename "\"org.car2x.veins.nodes.Car\""
par V2VNetwork.node[4] applType "\"MyVeinsApp\""
par V2VNetwork.node[4] nicType "\"Nic80211p\""
par V2VNetwork.node[4] veinsmobilityType "\"org.car2x.veins.modules.mobility.traci.TraCIMobility\""
scalar V2VNetwork.rsu[0].appl messagesRelayedToInternet 36
scalar V2VNetwork.rsu[2].appl messagesRelayedToInternet 34
scalar V2VNetwork.rsu[0].appl messagesRelayedToInternet 37
scalar V2VNetwork.rsu[2].appl messagesRelayedToInternet 35
par V2VNetwork.node[22].appl typename "\"org.car2x.veins.modules.application.traci.MyVeinsApp\""
par V2VNetwork.node[22].appl headerLength 88bit
attr unit bit
par V2VNetwork.node[22].appl sendBeacons true
par V2VNetwork.node[22].appl beaconLengthBits 256bit
attr unit bit
par V2VNetwork.node[22].appl beaconUserPriority 7
par V2VNetwork.node[22].appl beaconInterval 0.5s
attr unit s
par V2VNetwork.node[22].appl dataLengthBits 1024bit
attr unit bit
par V2VNetwork.node[22].appl dataOnSch false
par V2VNetwork.node[22].appl dataUserPriority 7
par V2VNetwork.node[22].appl avoidBeaconSynchronization true
par V2VNetwork.node[22].appl sendWSA false
par V2VNetwork.node[22].appl wsaLengthBits 250bit
attr unit bit
par V2VNetwork.node[22].appl wsaInterval 1s
attr unit s
par V2VNetwork.node[22].appl appName "\"V2V Security App\""
par V2VNetwork.node[22].appl malicious true
par V2VNetwork.node[22].appl attackType "\"flood\""
par V2VNetwork.node[22].appl attackInterval 2s
attr unit s
par V2VNetwork.node[22].appl detectionEnabled false
par V2VNetwork.node[22].appl floodThreshold 3
par V2VNetwork.node[22].appl totalAttackers 14
par V2VNetwork.node[22].appl totalDefenders 15
scalar V2VNetwork.node[22].appl generatedWSMs 3637
scalar V2VNetwork.node[22].appl receivedWSMs 0
scalar V2VNetwork.node[22].appl generatedBSMs 0
scalar V2VNetwork.node[22].appl receivedBSMs 0
scalar V2VNetwork.node[22].appl generatedWSAs 0
scalar V2VNetwork.node[22].appl receivedWSAs 0
par V2VNetwork.node[22].nic.phy80211p typename "\"org.car2x.veins.modules.phy.PhyLayer80211p\""
par V2VNetwork.node[22].nic.phy80211p recordStats false
par V2VNetwork.node[22].nic.phy80211p usePropagationDelay true
par V2VNetwork.node[22].nic.phy80211p noiseFloor -98dBm
attr unit dBm
par V2VNetwork.node[22].nic.phy80211p useNoiseFloor true
par V2VNetwork.node[22].nic.phy80211p antenna "<root>...</root> at /home/lokesh/Downloads/omnetpp-6.2.0/minorproject/v2v/simulations/v2v//config.xml:34"
par V2VNetwork.node[22].nic.phy80211p antennaOffsetX 0m
attr unit m
par V2VNetwork.node[22].nic.phy80211p antennaOffsetY 0m
attr unit m
par V2VNetwork.node[22].nic.phy80211p antennaOffsetZ 1.5m
attr unit m
par V2VNetwork.node[22].nic.phy80211p antennaOffsetYaw 0rad
attr unit rad
par V2VNetwork.node[22].nic.phy80211p analogueModels "<root>...</root> at /home/lokesh/Downloads/omnetpp-6.2.0/minorproject/v2v/simulations/v2v//config.xml:34"
par V2VNetwork.node[22].nic.phy80211p decider "<root>...</root> at /home/lokesh/Downloads/omnetpp-6.2.0/minorproject/v2v/simulations/v2v//config.xml:34"
par V2VNetwork.node[22].nic.phy80211p minPowerLevel -110dBm
attr unit dBm
par V2VNetwork.node[22].nic.phy80211p timeRXToTX 0s
attr unit s
par V2VNetwork.node[22].nic.phy80211p timeRXToSleep 0s
attr unit s
par V2VNetwork.node[22].nic.phy80211p timeTXToRX 0s
attr unit s
par V2VNetwork.node[22].nic.phy80211p timeTXToSleep 0s
attr unit s
par V2VNetwork.node[22].nic.phy80211p timeSleepToRX 0s
attr unit s
par V2VNetwork.node[22].nic.phy80211p timeSleepToTX 0s
attr unit s
par V2VNetwork.node[22].nic.phy80211p initialRadioState 0
par V2VNetwork.node[22].nic.phy80211p radioMinAtt 1
par V2VNetwork.node[22].nic.phy80211p radioMaxAtt 0
par V2VNetwork.node[22].nic.phy80211p nbRadioChannels 1
par V2VNetwork.node[22].nic.phy80211p initialRadioChannel 0
par V2VNetwork.node[22].nic.phy80211p ccaThreshold -65dBm
attr unit dBm
par V2VNetwork.node[22].nic.phy80211p collectCollisionStatistics false
par V2VNetwork.node[22].nic.phy80211p allowTxDuringRx false
scalar V2VNetwork.node[22].nic.phy80211p busyTime 0.17364648648648
par V2VNetwork.node[22].nic.mac1609_4 typename "\"org.car2x.veins.modules.mac.ieee80211p.Mac1609_4\""
par V2VNetwork.node[22].nic.mac1609_4 notAffectedByHostState false
par V2VNetwork.node[22].nic.mac1609_4 headerLength 0bit
attr unit bit
par V2VNetwork.node[22].nic.mac1609_4 address "\"auto\""
par V2VNetwork.node[22].nic.mac1609_4 useServiceChannel true
par V2VNetwork.node[22].nic.mac1609_4 serviceChannel 1
par V2VNetwork.node[22].nic.mac1609_4 bitrate 6000000bps
attr unit bps
par V2VNetwork.node[22].nic.mac1609_4 syncOffset 0.0003s
attr unit s
par V2VNetwork.node[22].nic.mac1609_4 txPower 20mW
attr unit mW
par V2VNetwork.node[22].nic.mac1609_4 queueSize 0
par V2VNetwork.node[22].nic.mac1609_4 dot11RTSThreshold 12000bit
attr unit bit
par V2VNetwork.node[22].nic.mac1609_4 dot11ShortRetryLimit 7
par V2VNetwork.node[22].nic.mac1609_4 dot11LongRetryLimit 4
par V2VNetwork.node[22].nic.mac1609_4 ackLength 112bit
attr unit bit
par V2VNetwork.node[22].nic.mac1609_4 useAcks false
par V2VNetwork.node[22].nic.mac1609_4 frameErrorRate 0
par V2VNetwork.node[22].nic.mac1609_4 ackErrorRate 0
scalar V2VNetwork.node[22].nic.mac1609_4 ReceivedUnicastPackets 0
scalar V2VNetwork.node[22].nic.mac1609_4 ReceivedBroadcasts 1333
scalar V2VNetwork.node[22].nic.mac1609_4 SentPackets 3637
scalar V2VNetwork.node[22].nic.mac1609_4 SentAcknowledgements 0
scalar V2VNetwork.node[22].nic.mac1609_4 RetriesExceeded 0
scalar V2VNetwork.node[22].nic.mac1609_4 SNIRLostPackets 28412
scalar V2VNetwork.node[22].nic.mac1609_4 RXTXLostPackets 18648
scalar V2VNetwork.node[22].nic.mac1609_4 TotalLostPackets 47060
scalar V2VNetwork.node[22].nic.mac1609_4 DroppedPacketsInMac 0
scalar V2VNetwork.node[22].nic.mac1609_4 TooLittleTime 197
scalar V2VNetwork.node[22].nic.mac1609_4 TimesIntoBackoff 3717
scalar V2VNetwork.node[22].nic.mac1609_4 SlotsBackoff 5427
scalar V2VNetwork.node[22].nic.mac1609_4 NumInternalContention 0
scalar V2VNetwork.node[22].nic.mac1609_4 totalBusyTime 2.141825256033
scalar V2VNetwork.node[22].nic.mac1609_4 retriesExceeded:count 0
attr recordingmode count
attr source org_car2x_veins_modules_mac_sigRetriesExceeded
scalar V2VNetwork.node[22].nic.mac1609_4 sentAcks:count 0
attr recordingmode count
attr source org_car2x_veins_modules_mac_sigSentAck
scalar V2VNetwork.node[22].nic.mac1609_4 sentPackets:count 3637
attr recordingmode count
attr source org_car2x_veins_modules_mac_sigSentPacket
scalar V2VNetwork.node[22].nic.mac1609_4 collisions:count 0
attr recordingmode count
attr source org_car2x_veins_modules_mac_sigCollision
scalar V2VNetwork.node[22].nic.mac1609_4 channelBusy:timeavg 0.05788716908197
attr recordingmode timeavg
attr source org_car2x_veins_modules_mac_sigChannelBusy
par V2VNetwork.node[22].nic typename "\"org.car2x.veins.modules.nic.Nic80211p\""
par V2VNetwork.node[22].nic connectionManagerName "\"connectionManager\""
par V2VNetwork.node[22].veinsmobility typename "\"org.car2x.veins.modules.mobility.traci.TraCIMobility\""
par V2VNetwork.node[22].veinsmobility notAffectedByHostState true
par V2VNetwork.node[22].veinsmobility x 0
par V2VNetwork.node[22].veinsmobility y 0
par V2VNetwork.node[22].veinsmobility z 0
par V2VNetwork.node[22].veinsmobility xOrientation 1
par V2VNetwork.node[22].veinsmobility yOrientation 0
par V2VNetwork.node[22].veinsmobility zOrientation 0
par V2VNetwork.node[22].veinsmobility hostPositionOffset 0m
attr unit m
par V2VNetwork.node[22].veinsmobility setHostSpeed false
par V2VNetwork.node[22].veinsmobility accidentCount 0
par V2VNetwork.node[22].veinsmobility accidentStart 45.6974s
attr unit s
par V2VNetwork.node[22].veinsmobility accidentDuration "uniform(30s, 60s)"
attr unit s
par V2VNetwork.node[22].veinsmobility accidentInterval "uniform(30s, 60s)"
attr unit s
scalar V2VNetwork.node[22].veinsmobility startTime 0.1
scalar V2VNetwork.node[22].veinsmobility totalTime 36.9
scalar V2VNetwork.node[22].veinsmobility stopTime 37.1
scalar V2VNetwork.node[22].veinsmobility minSpeed 0
scalar V2VNetwork.node[22].veinsmobility maxSpeed 19.353747099766
scalar V2VNetwork.node[22].veinsmobility totalDistance 387.60435313158
scalar V2VNetwork.node[22].veinsmobility totalCO2Emission 160.48264358255
par V2VNetwork.node[22] typename "\"org.car2x.veins.nodes.Car\""
par V2VNetwork.node[22] applType "\"MyVeinsApp\""
par V2VNetwork.node[22] nicType "\"Nic80211p\""
par V2VNetwork.node[22] veinsmobilityType "\"org.car2x.veins.modules.mobility.traci.TraCIMobility\""
scalar V2VNetwork.rsu[0].appl messagesRelayedToInternet 38
scalar V2VNetwork.rsu[2].appl messagesRelayedToInternet 36
scalar V2VNetwork.rsu[0].appl messagesRelayedToInternet 39
scalar V2VNetwork.rsu[2].appl messagesRelayedToInternet 37
scalar V2VNetwork.rsu[0].appl messagesRelayedToInternet 40
scalar V2VNetwork.rsu[2].appl messagesRelayedToInternet 38
scalar V2VNetwork.rsu[2].appl messagesRelayedToInternet 39
scalar V2VNetwork.rsu[0].appl messagesRelayedToInternet 41
scalar V2VNetwork.rsu[2].appl messagesRelayedToInternet 40
par V2VNetwork.node[1].appl typename "\"org.car2x.veins.modules.application.traci.MyVeinsApp\""
par V2VNetwork.node[1].appl headerLength 88bit
attr unit bit
par V2VNetwork.node[1].appl sendBeacons true
par V2VNetwork.node[1].appl beaconLengthBits 256bit
attr unit bit
par V2VNetwork.node[1].appl beaconUserPriority 7
par V2VNetwork.node[1].appl beaconInterval 0.5s
attr unit s
par V2VNetwork.node[1].appl dataLengthBits 1024bit
attr unit bit
par V2VNetwork.node[1].appl dataOnSch false
par V2VNetwork.node[1].appl dataUserPriority 7
par V2VNetwork.node[1].appl avoidBeaconSynchronization true
par V2VNetwork.node[1].appl sendWSA false
par V2VNetwork.node[1].appl wsaLengthBits 250bit
attr unit bit
par V2VNetwork.node[1].appl wsaInterval 1s
attr unit s
par V2VNetwork.node[1].appl appName "\"V2V Security App\""
par V2VNetwork.node[1].appl malicious false
par V2VNetwork.node[1].appl attackType "\"none\""
par V2VNetwork.node[1].appl attackInterval 2s
attr unit s
par V2VNetwork.node[1].appl detectionEnabled false
par V2VNetwork.node[1].appl floodThreshold 3
par V2VNetwork.node[1].appl totalAttackers 14
par V2VNetwork.node[1].appl totalDefenders 15
scalar V2VNetwork.node[1].appl generatedWSMs 42
scalar V2VNetwork.node[1].appl receivedWSMs 0
scalar V2VNetwork.node[1].appl generatedBSMs 0
scalar V2VNetwork.node[1].appl receivedBSMs 0
scalar V2VNetwork.node[1].appl generatedWSAs 0
scalar V2VNetwork.node[1].appl receivedWSAs 0
par V2VNetwork.node[1].nic.phy80211p typename "\"org.car2x.veins.modules.phy.PhyLayer80211p\""
par V2VNetwork.node[1].nic.phy80211p recordStats false
par V2VNetwork.node[1].nic.phy80211p usePropagationDelay true
par V2VNetwork.node[1].nic.phy80211p noiseFloor -98dBm
attr unit dBm
par V2VNetwork.node[1].nic.phy80211p useNoiseFloor true
par V2VNetwork.node[1].nic.phy80211p antenna "<root>...</root> at /home/lokesh/Downloads/omnetpp-6.2.0/minorproject/v2v/simulations/v2v//config.xml:34"
par V2VNetwork.node[1].nic.phy80211p antennaOffsetX 0m
attr unit m
par V2VNetwork.node[1].nic.phy80211p antennaOffsetY 0m
attr unit m
par V2VNetwork.node[1].nic.phy80211p antennaOffsetZ 1.5m
attr unit m
par V2VNetwork.node[1].nic.phy80211p antennaOffsetYaw 0rad
attr unit rad
par V2VNetwork.node[1].nic.phy80211p analogueModels "<root>...</root> at /home/lokesh/Downloads/omnetpp-6.2.0/minorproject/v2v/simulations/v2v//config.xml:34"
par V2VNetwork.node[1].nic.phy80211p decider "<root>...</root> at /home/lokesh/Downloads/omnetpp-6.2.0/minorproject/v2v/simulations/v2v//config.xml:34"
par V2VNetwork.node[1].nic.phy80211p minPowerLevel -110dBm
attr unit dBm
par V2VNetwork.node[1].nic.phy80211p timeRXToTX 0s
attr unit s
par V2VNetwork.node[1].nic.phy80211p timeRXToSleep 0s
attr unit s
par V2VNetwork.node[1].nic.phy80211p timeTXToRX 0s
attr unit s
par V2VNetwork.node[1].nic.phy80211p timeTXToSleep 0s
attr unit s
par V2VNetwork.node[1].nic.phy80211p timeSleepToRX 0s
attr unit s
par V2VNetwork.node[1].nic.phy80211p timeSleepToTX 0s
attr unit s
par V2VNetwork.node[1].nic.phy80211p initialRadioState 0
par V2VNetwork.node[1].nic.phy80211p radioMinAtt 1
par V2VNetwork.node[1].nic.phy80211p radioMaxAtt 0
par V2VNetwork.node[1].nic.phy80211p nbRadioChannels 1
par V2VNetwork.node[1].nic.phy80211p initialRadioChannel 0
par V2VNetwork.node[1].nic.phy80211p ccaThreshold -65dBm
attr unit dBm
par V2VNetwork.node[1].nic.phy80211p collectCollisionStatistics false
par V2VNetwork.node[1].nic.phy80211p allowTxDuringRx false
scalar V2VNetwork.node[1].nic.phy80211p busyTime 0.29485657142856
par V2VNetwork.node[1].nic.mac1609_4 typename "\"org.car2x.veins.modules.mac.ieee80211p.Mac1609_4\""
par V2VNetwork.node[1].nic.mac1609_4 notAffectedByHostState false
par V2VNetwork.node[1].nic.mac1609_4 headerLength 0bit
attr unit bit
par V2VNetwork.node[1].nic.mac1609_4 address "\"auto\""
par V2VNetwork.node[1].nic.mac1609_4 useServiceChannel true
par V2VNetwork.node[1].nic.mac1609_4 serviceChannel 1
par V2VNetwork.node[1].nic.mac1609_4 bitrate 6000000bps
attr unit bps
par V2VNetwork.node[1].nic.mac1609_4 syncOffset 0.0003s
attr unit s
par V2VNetwork.node[1].nic.mac1609_4 txPower 20mW
attr unit mW
par V2VNetwork.node[1].nic.mac1609_4 queueSize 0
par V2VNetwork.node[1].nic.mac1609_4 dot11RTSThreshold 12000bit
attr unit bit
par V2VNetwork.node[1].nic.mac1609_4 dot11ShortRetryLimit 7
par V2VNetwork.node[1].nic.mac1609_4 dot11LongRetryLimit 4
par V2VNetwork.node[1].nic.mac1609_4 ackLength 112bit
attr unit bit
par V2VNetwork.node[1].nic.mac1609_4 useAcks false
par V2VNetwork.node[1].nic.mac1609_4 frameErrorRate 0
par V2VNetwork.node[1].nic.mac1609_4 ackErrorRate 0
scalar V2VNetwork.node[1].nic.mac1609_4 ReceivedUnicastPackets 0
scalar V2VNetwork.node[1].nic.mac1609_4 ReceivedBroadcasts 2342
scalar V2VNetwork.node[1].nic.mac1609_4 SentPackets 42
scalar V2VNetwork.node[1].nic.mac1609_4 SentAcknowledgements 0
scalar V2VNetwork.node[1].nic.mac1609_4 RetriesExceeded 0
scalar V2VNetwork.node[1].nic.mac1609_4 SNIRLostPackets 55013
scalar V2VNetwork.node[1].nic.mac1609_4 RXTXLostPackets 0
scalar V2VNetwork.node[1].nic.mac1609_4 TotalLostPackets 55013
scalar V2VNetwork.node[1].nic.mac1609_4 DroppedPacketsInMac 0
scalar V2VNetwork.node[1].nic.mac1609_4 TooLittleTime 0
scalar V2VNetwork.node[1].nic.mac1609_4 TimesIntoBackoff 84
scalar V2VNetwork.node[1].nic.mac1609_4 SlotsBackoff 66
scalar V2VNetwork.node[1].nic.mac1609_4 NumInternalContention 0
scalar V2VNetwork.node[1].nic.mac1609_4 totalBusyTime 2.379120408681
scalar V2VNetwork.node[1].nic.mac1609_4 retriesExceeded:count 0
attr recordingmode count
attr source org_car2x_veins_modules_mac_sigRetriesExceeded
scalar V2VNetwork.node[1].nic.mac1609_4 sentAcks:count 0
attr recordingmode count
attr source org_car2x_veins_modules_mac_sigSentAck
scalar V2VNetwork.node[1].nic.mac1609_4 sentPackets:count 42
attr recordingmode count
attr source org_car2x_veins_modules_mac_sigSentPacket
scalar V2VNetwork.node[1].nic.mac1609_4 collisions:count 0
attr recordingmode count
attr source org_car2x_veins_modules_mac_sigCollision
scalar V2VNetwork.node[1].nic.mac1609_4 channelBusy:timeavg 0.056645724016213
attr recordingmode timeavg
attr source org_car2x_veins_modules_mac_sigChannelBusy
par V2VNetwork.node[1].nic typename "\"org.car2x.veins.modules.nic.Nic80211p\""
par V2VNetwork.node[1].nic connectionManagerName "\"connectionManager\""
par V2VNetwork.node[1].veinsmobility typename "\"org.car2x.veins.modules.mobility.traci.TraCIMobility\""
par V2VNetwork.node[1].veinsmobility notAffectedByHostState true
par V2VNetwork.node[1].veinsmobility x 0
par V2VNetwork.node[1].veinsmobility y 0
par V2VNetwork.node[1].veinsmobility z 0
par V2VNetwork.node[1].veinsmobility xOrientation 1
par V2VNetwork.node[1].veinsmobility yOrientation 0
par V2VNetwork.node[1].veinsmobility zOrientation 0
par V2VNetwork.node[1].veinsmobility hostPositionOffset 0m
attr unit m
par V2VNetwork.node[1].veinsmobility setHostSpeed false
par V2VNetwork.node[1].veinsmobility accidentCount 0
par V2VNetwork.node[1].veinsmobility accidentStart 41.7835s
attr unit s
par V2VNetwork.node[1].veinsmobility accidentDuration "uniform(30s, 60s)"
attr unit s
par V2VNetwork.node[1].veinsmobility accidentInterval "uniform(30s, 60s)"
attr unit s
scalar V2VNetwork.node[1].veinsmobility startTime 0.1
scalar V2VNetwork.node[1].veinsmobility totalTime 41.9
scalar V2VNetwork.node[1].veinsmobility stopTime 42.1
scalar V2VNetwork.node[1].veinsmobility minSpeed 0
scalar V2VNetwork.node[1].veinsmobility maxSpeed 18.381857321435
scalar V2VNetwork.node[1].veinsmobility totalDistance 394.63124595461
scalar V2VNetwork.node[1].veinsmobility totalCO2Emission 183.0203922404
par V2VNetwork.node[1] typename "\"org.car2x.veins.nodes.Car\""
par V2VNetwork.node[1] applType "\"MyVeinsApp\""
par V2VNetwork.node[1] nicType "\"Nic80211p\""
par V2VNetwork.node[1] veinsmobilityType "\"org.car2x.veins.modules.mobility.traci.TraCIMobility\""
scalar V2VNetwork.rsu[0].appl messagesRelayedToInternet 42
scalar V2VNetwork.rsu[2].appl messagesRelayedToInternet 41
scalar V2VNetwork.rsu[0].appl messagesRelayedToInternet 43
scalar V2VNetwork.rsu[2].appl messagesRelayedToInternet 42
scalar V2VNetwork.rsu[0].appl messagesRelayedToInternet 44
scalar V2VNetwork.rsu[2].appl messagesRelayedToInternet 43
scalar V2VNetwork.rsu[0].appl messagesRelayedToInternet 45
scalar V2VNetwork.rsu[2].appl messagesRelayedToInternet 44
par V2VNetwork.node[26].appl typename "\"org.car2x.veins.modules.application.traci.MyVeinsApp\""
par V2VNetwork.node[26].appl headerLength 88bit
attr unit bit
par V2VNetwork.node[26].appl sendBeacons true
par V2VNetwork.node[26].appl beaconLengthBits 256bit
attr unit bit
par V2VNetwork.node[26].appl beaconUserPriority 7
par V2VNetwork.node[26].appl beaconInterval 0.5s
attr unit s
par V2VNetwork.node[26].appl dataLengthBits 1024bit
attr unit bit
par V2VNetwork.node[26].appl dataOnSch false
par V2VNetwork.node[26].appl dataUserPriority 7
par V2VNetwork.node[26].appl avoidBeaconSynchronization true
par V2VNetwork.node[26].appl sendWSA false
par V2VNetwork.node[26].appl wsaLengthBits 250bit
attr unit bit
par V2VNetwork.node[26].appl wsaInterval 1s
attr unit s
par V2VNetwork.node[26].appl appName "\"V2V Security App\""
par V2VNetwork.node[26].appl malicious false
par V2VNetwork.node[26].appl attackType "\"none\""
par V2VNetwork.node[26].appl attackInterval 2s
attr unit s
par V2VNetwork.node[26].appl detectionEnabled false
par V2VNetwork.node[26].appl floodThreshold 3
par V2VNetwork.node[26].appl totalAttackers 14
par V2VNetwork.node[26].appl totalDefenders 15
scalar V2VNetwork.node[26].appl generatedWSMs 46
scalar V2VNetwork.node[26].appl receivedWSMs 0
scalar V2VNetwork.node[26].appl generatedBSMs 0
scalar V2VNetwork.node[26].appl receivedBSMs 0
scalar V2VNetwork.node[26].appl generatedWSAs 0
scalar V2VNetwork.node[26].appl receivedWSAs 0
par V2VNetwork.node[26].nic.phy80211p typename "\"org.car2x.veins.modules.phy.PhyLayer80211p\""
par V2VNetwork.node[26].nic.phy80211p recordStats false
par V2VNetwork.node[26].nic.phy80211p usePropagationDelay true
par V2VNetwork.node[26].nic.phy80211p noiseFloor -98dBm
attr unit dBm
par V2VNetwork.node[26].nic.phy80211p useNoiseFloor true
par V2VNetwork.node[26].nic.phy80211p antenna "<root>...</root> at /home/lokesh/Downloads/omnetpp-6.2.0/minorproject/v2v/simulations/v2v//config.xml:34"
par V2VNetwork.node[26].nic.phy80211p antennaOffsetX 0m
attr unit m
par V2VNetwork.node[26].nic.phy80211p antennaOffsetY 0m
attr unit m
par V2VNetwork.node[26].nic.phy80211p antennaOffsetZ 1.5m
attr unit m
par V2VNetwork.node[26].nic.phy80211p antennaOffsetYaw 0rad
attr unit rad
par V2VNetwork.node[26].nic.phy80211p analogueModels "<root>...</root> at /home/lokesh/Downloads/omnetpp-6.2.0/minorproject/v2v/simulations/v2v//config.xml:34"
par V2VNetwork.node[26].nic.phy80211p decider "<root>...</root> at /home/lokesh/Downloads/omnetpp-6.2.0/minorproject/v2v/simulations/v2v//config.xml:34"
par V2VNetwork.node[26].nic.phy80211p minPowerLevel -110dBm
attr unit dBm
par V2VNetwork.node[26].nic.phy80211p timeRXToTX 0s
attr unit s
par V2VNetwork.node[26].nic.phy80211p timeRXToSleep 0s
attr unit s
par V2VNetwork.node[26].nic.phy80211p timeTXToRX 0s
attr unit s
par V2VNetwork.node[26].nic.phy80211p timeTXToSleep 0s
attr unit s
par V2VNetwork.node[26].nic.phy80211p timeSleepToRX 0s
attr unit s
par V2VNetwork.node[26].nic.phy80211p timeSleepToTX 0s
attr unit s
par V2VNetwork.node[26].nic.phy80211p initialRadioState 0
par V2VNetwork.node[26].nic.phy80211p radioMinAtt 1
par V2VNetwork.node[26].nic.phy80211p radioMaxAtt 0
par V2VNetwork.node[26].nic.phy80211p nbRadioChannels 1
par V2VNetwork.node[26].nic.phy80211p initialRadioChannel 0
par V2VNetwork.node[26].nic.phy80211p ccaThreshold -65dBm
attr unit dBm
par V2VNetwork.node[26].nic.phy80211p collectCollisionStatistics false
par V2VNetwork.node[26].nic.phy80211p allowTxDuringRx false
scalar V2VNetwork.node[26].nic.phy80211p busyTime 0.29381686956521
par V2VNetwork.node[26].nic.mac1609_4 typename "\"org.car2x.veins.modules.mac.ieee80211p.Mac1609_4\""
par V2VNetwork.node[26].nic.mac1609_4 notAffectedByHostState false
par V2VNetwork.node[26].nic.mac1609_4 headerLength 0bit
attr unit bit
par V2VNetwork.node[26].nic.mac1609_4 address "\"auto\""
par V2VNetwork.node[26].nic.mac1609_4 useServiceChannel true
par V2VNetwork.node[26].nic.mac1609_4 serviceChannel 1
par V2VNetwork.node[26].nic.mac1609_4 bitrate 6000000bps
attr unit bps
par V2VNetwork.node[26].nic.mac1609_4 syncOffset 0.0003s
attr unit s
par V2VNetwork.node[26].nic.mac1609_4 txPower 20mW
attr unit mW
par V2VNetwork.node[26].nic.mac1609_4 queueSize 0
par V2VNetwork.node[26].nic.mac1609_4 dot11RTSThreshold 12000bit
attr unit bit
par V2VNetwork.node[26].nic.mac1609_4 dot11ShortRetryLimit 7
par V2VNetwork.node[26].nic.mac1609_4 dot11LongRetryLimit 4
par V2VNetwork.node[26].nic.mac1609_4 ackLength 112bit
attr unit bit
par V2VNetwork.node[26].nic.mac1609_4 useAcks false
par V2VNetwork.node[26].nic.mac1609_4 frameErrorRate 0
par V2VNetwork.node[26].nic.mac1609_4 ackErrorRate 0
scalar V2VNetwork.node[26].nic.mac1609_4 ReceivedUnicastPackets 0
scalar V2VNetwork.node[26].nic.mac1609_4 ReceivedBroadcasts 2087
scalar V2VNetwork.node[26].nic.mac1609_4 SentPackets 46
scalar V2VNetwork.node[26].nic.mac1609_4 SentAcknowledgements 0
scalar V2VNetwork.node[26].nic.mac1609_4 RetriesExceeded 0
scalar V2VNetwork.node[26].nic.mac1609_4 SNIRLostPackets 60496
scalar V2VNetwork.node[26].nic.mac1609_4 RXTXLostPackets 43
scalar V2VNetwork.node[26].nic.mac1609_4 TotalLostPackets 60539
scalar V2VNetwork.node[26].nic.mac1609_4 DroppedPacketsInMac 0
scalar V2VNetwork.node[26].nic.mac1609_4 TooLittleTime 0
scalar V2VNetwork.node[26].nic.mac1609_4 TimesIntoBackoff 92
scalar V2VNetwork.node[26].nic.mac1609_4 SlotsBackoff 64
scalar V2VNetwork.node[26].nic.mac1609_4 NumInternalContention 0
scalar V2VNetwork.node[26].nic.mac1609_4 totalBusyTime 2.614169727505
scalar V2VNetwork.node[26].nic.mac1609_4 retriesExceeded:count 0
attr recordingmode count
attr source org_car2x_veins_modules_mac_sigRetriesExceeded
scalar V2VNetwork.node[26].nic.mac1609_4 sentAcks:count 0
attr recordingmode count
attr source org_car2x_veins_modules_mac_sigSentAck
scalar V2VNetwork.node[26].nic.mac1609_4 sentPackets:count 46
attr recordingmode count
attr source org_car2x_veins_modules_mac_sigSentPacket
scalar V2VNetwork.node[26].nic.mac1609_4 collisions:count 0
attr recordingmode count
attr source org_car2x_veins_modules_mac_sigCollision
scalar V2VNetwork.node[26].nic.mac1609_4 channelBusy:timeavg 0.056717081032716
attr recordingmode timeavg
attr source org_car2x_veins_modules_mac_sigChannelBusy
par V2VNetwork.node[26].nic typename "\"org.car2x.veins.modules.nic.Nic80211p\""
par V2VNetwork.node[26].nic connectionManagerName "\"connectionManager\""
par V2VNetwork.node[26].veinsmobility typename "\"org.car2x.veins.modules.mobility.traci.TraCIMobility\""
par V2VNetwork.node[26].veinsmobility notAffectedByHostState true
par V2VNetwork.node[26].veinsmobility x 0
par V2VNetwork.node[26].veinsmobility y 0
par V2VNetwork.node[26].veinsmobility z 0
par V2VNetwork.node[26].veinsmobility xOrientation 1
par V2VNetwork.node[26].veinsmobility yOrientation 0
par V2VNetwork.node[26].veinsmobility zOrientation 0
par V2VNetwork.node[26].veinsmobility hostPositionOffset 0m
attr unit m
par V2VNetwork.node[26].veinsmobility setHostSpeed false
par V2VNetwork.node[26].veinsmobility accidentCount 0
par V2VNetwork.node[26].veinsmobility accidentStart 50.3345s
attr unit s
par V2VNetwork.node[26].veinsmobility accidentDuration "uniform(30s, 60s)"
attr unit s
par V2VNetwork.node[26].veinsmobility accidentInterval "uniform(30s, 60s)"
attr unit s
scalar V2VNetwork.node[26].veinsmobility startTime 0.1
scalar V2VNetwork.node[26].veinsmobility totalTime 45.9
scalar V2VNetwork.node[26].veinsmobility stopTime 46.1
scalar V2VNetwork.node[26].veinsmobility minSpeed 0
scalar V2VNetwork.node[26].veinsmobility maxSpeed 14.460496049596
scalar V2VNetwork.node[26].veinsmobility totalDistance 425.23412584349
scalar V2VNetwork.node[26].veinsmobility totalCO2Emission 175.37114543244
par V2VNetwork.node[26] typename "\"org.car2x.veins.nodes.Car\""
par V2VNetwork.node[26] applType "\"MyVeinsApp\""
par V2VNetwork.node[26] nicType "\"Nic80211p\""
par V2VNetwork.node[26] veinsmobilityType "\"org.car2x.veins.modules.mobility.traci.TraCIMobility\""
par V2VNetwork.node[14].appl typename "\"org.car2x.veins.modules.application.traci.MyVeinsApp\""
par V2VNetwork.node[14].appl headerLength 88bit
attr unit bit
par V2VNetwork.node[14].appl sendBeacons true
par V2VNetwork.node[14].appl beaconLengthBits 256bit
attr unit bit
par V2VNetwork.node[14].appl beaconUserPriority 7
par V2VNetwork.node[14].appl beaconInterval 0.5s
attr unit s
par V2VNetwork.node[14].appl dataLengthBits 1024bit
attr unit bit
par V2VNetwork.node[14].appl dataOnSch false
par V2VNetwork.node[14].appl dataUserPriority 7
par V2VNetwork.node[14].appl avoidBeaconSynchronization true
par V2VNetwork.node[14].appl sendWSA false
par V2VNetwork.node[14].appl wsaLengthBits 250bit
attr unit bit
par V2VNetwork.node[14].appl wsaInterval 1s
attr unit s
par V2VNetwork.node[14].appl appName "\"V2V Security App\""
par V2VNetwork.node[14].appl malicious true
par V2VNetwork.node[14].appl attackType "\"flood\""
par V2VNetwork.node[14].appl attackInterval 2s
attr unit s
par V2VNetwork.node[14].appl detectionEnabled false
par V2VNetwork.node[14].appl floodThreshold 3
par V2VNetwork.node[14].appl totalAttackers 14
par V2VNetwork.node[14].appl totalDefenders 15
scalar V2VNetwork.node[14].appl generatedWSMs 4646
scalar V2VNetwork.node[14].appl receivedWSMs 0
scalar V2VNetwork.node[14].appl generatedBSMs 0
scalar V2VNetwork.node[14].appl receivedBSMs 0
scalar V2VNetwork.node[14].appl generatedWSAs 0
scalar V2VNetwork.node[14].appl receivedWSAs 0
par V2VNetwork.node[14].nic.phy80211p typename "\"org.car2x.veins.modules.phy.PhyLayer80211p\""
par V2VNetwork.node[14].nic.phy80211p recordStats false
par V2VNetwork.node[14].nic.phy80211p usePropagationDelay true
par V2VNetwork.node[14].nic.phy80211p noiseFloor -98dBm
attr unit dBm
par V2VNetwork.node[14].nic.phy80211p useNoiseFloor true
par V2VNetwork.node[14].nic.phy80211p antenna "<root>...</root> at /home/lokesh/Downloads/omnetpp-6.2.0/minorproject/v2v/simulations/v2v//config.xml:34"
par V2VNetwork.node[14].nic.phy80211p antennaOffsetX 0m
attr unit m
par V2VNetwork.node[14].nic.phy80211p antennaOffsetY 0m
attr unit m
par V2VNetwork.node[14].nic.phy80211p antennaOffsetZ 1.5m
attr unit m
par V2VNetwork.node[14].nic.phy80211p antennaOffsetYaw 0rad
attr unit rad
par V2VNetwork.node[14].nic.phy80211p analogueModels "<root>...</root> at /home/lokesh/Downloads/omnetpp-6.2.0/minorproject/v2v/simulations/v2v//config.xml:34"
par V2VNetwork.node[14].nic.phy80211p decider "<root>...</root> at /home/lokesh/Downloads/omnetpp-6.2.0/minorproject/v2v/simulations/v2v//config.xml:34"
par V2VNetwork.node[14].nic.phy80211p minPowerLevel -110dBm
attr unit dBm
par V2VNetwork.node[14].nic.phy80211p timeRXToTX 0s
attr unit s
par V2VNetwork.node[14].nic.phy80211p timeRXToSleep 0s
attr unit s
par V2VNetwork.node[14].nic.phy80211p timeTXToRX 0s
attr unit s
par V2VNetwork.node[14].nic.phy80211p timeTXToSleep 0s
attr unit s
par V2VNetwork.node[14].nic.phy80211p timeSleepToRX 0s
attr unit s
par V2VNetwork.node[14].nic.phy80211p timeSleepToTX 0s
attr unit s
par V2VNetwork.node[14].nic.phy80211p initialRadioState 0
par V2VNetwork.node[14].nic.phy80211p radioMinAtt 1
par V2VNetwork.node[14].nic.phy80211p radioMaxAtt 0
par V2VNetwork.node[14].nic.phy80211p nbRadioChannels 1
par V2VNetwork.node[14].nic.phy80211p initialRadioChannel 0
par V2VNetwork.node[14].nic.phy80211p ccaThreshold -65dBm
attr unit dBm
par V2VNetwork.node[14].nic.phy80211p collectCollisionStatistics false
par V2VNetwork.node[14].nic.phy80211p allowTxDuringRx false
scalar V2VNetwork.node[14].nic.phy80211p busyTime 0.16743217391304
par V2VNetwork.node[14].nic.mac1609_4 typename "\"org.car2x.veins.modules.mac.ieee80211p.Mac1609_4\""
par V2VNetwork.node[14].nic.mac1609_4 notAffectedByHostState false
par V2VNetwork.node[14].nic.mac1609_4 headerLength 0bit
attr unit bit
par V2VNetwork.node[14].nic.mac1609_4 address "\"auto\""
par V2VNetwork.node[14].nic.mac1609_4 useServiceChannel true
par V2VNetwork.node[14].nic.mac1609_4 serviceChannel 1
par V2VNetwork.node[14].nic.mac1609_4 bitrate 6000000bps
attr unit bps
par V2VNetwork.node[14].nic.mac1609_4 syncOffset 0.0003s
attr unit s
par V2VNetwork.node[14].nic.mac1609_4 txPower 20mW
attr unit mW
par V2VNetwork.node[14].nic.mac1609_4 queueSize 0
par V2VNetwork.node[14].nic.mac1609_4 dot11RTSThreshold 12000bit
attr unit bit
par V2VNetwork.node[14].nic.mac1609_4 dot11ShortRetryLimit 7
par V2VNetwork.node[14].nic.mac1609_4 dot11LongRetryLimit 4
par V2VNetwork.node[14].nic.mac1609_4 ackLength 112bit
attr unit bit
par V2VNetwork.node[14].nic.mac1609_4 useAcks false
par V2VNetwork.node[14].nic.mac1609_4 frameErrorRate 0
par V2VNetwork.node[14].nic.mac1609_4 ackErrorRate 0
scalar V2VNetwork.node[14].nic.mac1609_4 ReceivedUnicastPackets 0
scalar V2VNetwork.node[14].nic.mac1609_4 ReceivedBroadcasts 2307
scalar V2VNetwork.node[14].nic.mac1609_4 SentPackets 4446
scalar V2VNetwork.node[14].nic.mac1609_4 SentAcknowledgements 0
scalar V2VNetwork.node[14].nic.mac1609_4 RetriesExceeded 0
scalar V2VNetwork.node[14].nic.mac1609_4 SNIRLostPackets 33368
scalar V2VNetwork.node[14].nic.mac1609_4 RXTXLostPackets 22565
scalar V2VNetwork.node[14].nic.mac1609_4 TotalLostPackets 55933
scalar V2VNetwork.node[14].nic.mac1609_4 DroppedPacketsInMac 0
scalar V2VNetwork.node[14].nic.mac1609_4 TooLittleTime 148
scalar V2VNetwork.node[14].nic.mac1609_4 TimesIntoBackoff 4544
scalar V2VNetwork.node[14].nic.mac1609_4 SlotsBackoff 6669
scalar V2VNetwork.node[14].nic.mac1609_4 NumInternalContention 0
scalar V2VNetwork.node[14].nic.mac1609_4 totalBusyTime 2.619347832647
scalar V2VNetwork.node[14].nic.mac1609_4 retriesExceeded:count 0
attr recordingmode count
attr source org_car2x_veins_modules_mac_sigRetriesExceeded
scalar V2VNetwork.node[14].nic.mac1609_4 sentAcks:count 0
attr recordingmode count
attr source org_car2x_veins_modules_mac_sigSentAck
scalar V2VNetwork.node[14].nic.mac1609_4 sentPackets:count 4446
attr recordingmode count
attr source org_car2x_veins_modules_mac_sigSentPacket
scalar V2VNetwork.node[14].nic.mac1609_4 collisions:count 0
attr recordingmode count
attr source org_car2x_veins_modules_mac_sigCollision
scalar V2VNetwork.node[14].nic.mac1609_4 channelBusy:timeavg 0.056829648535803
attr recordingmode timeavg
attr source org_car2x_veins_modules_mac_sigChannelBusy
par V2VNetwork.node[14].nic typename "\"org.car2x.veins.modules.nic.Nic80211p\""
par V2VNetwork.node[14].nic connectionManagerName "\"connectionManager\""
par V2VNetwork.node[14].veinsmobility typename "\"org.car2x.veins.modules.mobility.traci.TraCIMobility\""
par V2VNetwork.node[14].veinsmobility notAffectedByHostState true
par V2VNetwork.node[14].veinsmobility x 0
par V2VNetwork.node[14].veinsmobility y 0
par V2VNetwork.node[14].veinsmobility z 0
par V2VNetwork.node[14].veinsmobility xOrientation 1
par V2VNetwork.node[14].veinsmobility yOrientation 0
par V2VNetwork.node[14].veinsmobility zOrientation 0
par V2VNetwork.node[14].veinsmobility hostPositionOffset 0m
attr unit m
par V2VNetwork.node[14].veinsmobility setHostSpeed false
par V2VNetwork.node[14].veinsmobility accidentCount 0
par V2VNetwork.node[14].veinsmobility accidentStart 43.9893s
attr unit s
par V2VNetwork.node[14].veinsmobility accidentDuration "uniform(30s, 60s)"
attr unit s
par V2VNetwork.node[14].veinsmobility accidentInterval "uniform(30s, 60s)"
attr unit s
scalar V2VNetwork.node[14].veinsmobility startTime 0.1
scalar V2VNetwork.node[14].veinsmobility totalTime 45.9
scalar V2VNetwork.node[14].veinsmobility stopTime 46.1
scalar V2VNetwork.node[14].veinsmobility minSpeed 0
scalar V2VNetwork.node[14].veinsmobility maxSpeed 20.79683694304
scalar V2VNetwork.node[14].veinsmobility totalDistance 428.90865546837
scalar V2VNetwork.node[14].veinsmobility totalCO2Emission 210.08998991597
par V2VNetwork.node[14] typename "\"org.car2x.veins.nodes.Car\""
par V2VNetwork.node[14] applType "\"MyVeinsApp\""
par V2VNetwork.node[14] nicType "\"Nic80211p\""
par V2VNetwork.node[14] veinsmobilityType "\"org.car2x.veins.modules.mobility.traci.TraCIMobility\""
scalar V2VNetwork.rsu[0].appl messagesRelayedToInternet 46
scalar V2VNetwork.rsu[2].appl messagesRelayedToInternet 45
scalar V2VNetwork.rsu[0].appl messagesRelayedToInternet 47
scalar V2VNetwork.rsu[2].appl messagesRelayedToInternet 46
scalar V2VNetwork.rsu[0].appl messagesRelayedToInternet 48
scalar V2VNetwork.rsu[2].appl messagesRelayedToInternet 47
par V2VNetwork.node[27].appl typename "\"org.car2x.veins.modules.application.traci.MyVeinsApp\""
par V2VNetwork.node[27].appl headerLength 88bit
attr unit bit
par V2VNetwork.node[27].appl sendBeacons true
par V2VNetwork.node[27].appl beaconLengthBits 256bit
attr unit bit
par V2VNetwork.node[27].appl beaconUserPriority 7
par V2VNetwork.node[27].appl beaconInterval 0.5s
attr unit s
par V2VNetwork.node[27].appl dataLengthBits 1024bit
attr unit bit
par V2VNetwork.node[27].appl dataOnSch false
par V2VNetwork.node[27].appl dataUserPriority 7
par V2VNetwork.node[27].appl avoidBeaconSynchronization true
par V2VNetwork.node[27].appl sendWSA false
par V2VNetwork.node[27].appl wsaLengthBits 250bit
attr unit bit
par V2VNetwork.node[27].appl wsaInterval 1s
attr unit s
par V2VNetwork.node[27].appl appName "\"V2V Security App\""
par V2VNetwork.node[27].appl malicious false
par V2VNetwork.node[27].appl attackType "\"none\""
par V2VNetwork.node[27].appl attackInterval 2s
attr unit s
par V2VNetwork.node[27].appl detectionEnabled false
par V2VNetwork.node[27].appl floodThreshold 3
par V2VNetwork.node[27].appl totalAttackers 14
par V2VNetwork.node[27].appl totalDefenders 15
scalar V2VNetwork.node[27].appl generatedWSMs 46
scalar V2VNetwork.node[27].appl receivedWSMs 0
scalar V2VNetwork.node[27].appl generatedBSMs 0
scalar V2VNetwork.node[27].appl receivedBSMs 0
scalar V2VNetwork.node[27].appl generatedWSAs 0
scalar V2VNetwork.node[27].appl receivedWSAs 0
par V2VNetwork.node[27].nic.phy80211p typename "\"org.car2x.veins.modules.phy.PhyLayer80211p\""
par V2VNetwork.node[27].nic.phy80211p recordStats false
par V2VNetwork.node[27].nic.phy80211p usePropagationDelay true
par V2VNetwork.node[27].nic.phy80211p noiseFloor -98dBm
attr unit dBm
par V2VNetwork.node[27].nic.phy80211p useNoiseFloor true
par V2VNetwork.node[27].nic.phy80211p antenna "<root>...</root> at /home/lokesh/Downloads/omnetpp-6.2.0/minorproject/v2v/simulations/v2v//config.xml:34"
par V2VNetwork.node[27].nic.phy80211p antennaOffsetX 0m
attr unit m
par V2VNetwork.node[27].nic.phy80211p antennaOffsetY 0m
attr unit m
par V2VNetwork.node[27].nic.phy80211p antennaOffsetZ 1.5m
attr unit m
par V2VNetwork.node[27].nic.phy80211p antennaOffsetYaw 0rad
attr unit rad
par V2VNetwork.node[27].nic.phy80211p analogueModels "<root>...</root> at /home/lokesh/Downloads/omnetpp-6.2.0/minorproject/v2v/simulations/v2v//config.xml:34"
par V2VNetwork.node[27].nic.phy80211p decider "<root>...</root> at /home/lokesh/Downloads/omnetpp-6.2.0/minorproject/v2v/simulations/v2v//config.xml:34"
par V2VNetwork.node[27].nic.phy80211p minPowerLevel -110dBm
attr unit dBm
par V2VNetwork.node[27].nic.phy80211p timeRXToTX 0s
attr unit s
par V2VNetwork.node[27].nic.phy80211p timeRXToSleep 0s
attr unit s
par V2VNetwork.node[27].nic.phy80211p timeTXToRX 0s
attr unit s
par V2VNetwork.node[27].nic.phy80211p timeTXToSleep 0s
attr unit s
par V2VNetwork.node[27].nic.phy80211p timeSleepToRX 0s
attr unit s
par V2VNetwork.node[27].nic.phy80211p timeSleepToTX 0s
attr unit s
par V2VNetwork.node[27].nic.phy80211p initialRadioState 0
par V2VNetwork.node[27].nic.phy80211p radioMinAtt 1
par V2VNetwork.node[27].nic.phy80211p radioMaxAtt 0
par V2VNetwork.node[27].nic.phy80211p nbRadioChannels 1
par V2VNetwork.node[27].nic.phy80211p initialRadioChannel 0
par V2VNetwork.node[27].nic.phy80211p ccaThreshold -65dBm
attr unit dBm
par V2VNetwork.node[27].nic.phy80211p collectCollisionStatistics false
par V2VNetwork.node[27].nic.phy80211p allowTxDuringRx false
scalar V2VNetwork.node[27].nic.phy80211p busyTime 0.30170086956521
par V2VNetwork.node[27].nic.mac1609_4 typename "\"org.car2x.veins.modules.mac.ieee80211p.Mac1609_4\""
par V2VNetwork.node[27].nic.mac1609_4 notAffectedByHostState false
par V2VNetwork.node[27].nic.mac1609_4 headerLength 0bit
attr unit bit
par V2VNetwork.node[27].nic.mac1609_4 address "\"auto\""
par V2VNetwork.node[27].nic.mac1609_4 useServiceChannel true
par V2VNetwork.node[27].nic.mac1609_4 serviceChannel 1
par V2VNetwork.node[27].nic.mac1609_4 bitrate 6000000bps
attr unit bps
par V2VNetwork.node[27].nic.mac1609_4 syncOffset 0.0003s
attr unit s
par V2VNetwork.node[27].nic.mac1609_4 txPower 20mW
attr unit mW
par V2VNetwork.node[27].nic.mac1609_4 queueSize 0
par V2VNetwork.node[27].nic.mac1609_4 dot11RTSThreshold 12000bit
attr unit bit
par V2VNetwork.node[27].nic.mac1609_4 dot11ShortRetryLimit 7
par V2VNetwork.node[27].nic.mac1609_4 dot11LongRetryLimit 4
par V2VNetwork.node[27].nic.mac1609_4 ackLength 112bit
attr unit bit
par V2VNetwork.node[27].nic.mac1609_4 useAcks false
par V2VNetwork.node[27].nic.mac1609_4 frameErrorRate 0
par V2VNetwork.node[27].nic.mac1609_4 ackErrorRate 0
scalar V2VNetwork.node[27].nic.mac1609_4 ReceivedUnicastPackets 0
scalar V2VNetwork.node[27].nic.mac1609_4 ReceivedBroadcasts 2083
scalar V2VNetwork.node[27].nic.mac1609_4 SentPackets 46
scalar V2VNetwork.node[27].nic.mac1609_4 SentAcknowledgements 0
scalar V2VNetwork.node[27].nic.mac1609_4 RetriesExceeded 0
scalar V2VNetwork.node[27].nic.mac1609_4 SNIRLostPackets 62179
scalar V2VNetwork.node[27].nic.mac1609_4 RXTXLostPackets 149
scalar V2VNetwork.node[27].nic.mac1609_4 TotalLostPackets 62328
scalar V2VNetwork.node[27].nic.mac1609_4 DroppedPacketsInMac 0
scalar V2VNetwork.node[27].nic.mac1609_4 TooLittleTime 0
scalar V2VNetwork.node[27].nic.mac1609_4 TimesIntoBackoff 92
scalar V2VNetwork.node[27].nic.mac1609_4 SlotsBackoff 68
scalar V2VNetwork.node[27].nic.mac1609_4 NumInternalContention 0
scalar V2VNetwork.node[27].nic.mac1609_4 totalBusyTime 2.718148802467
scalar V2VNetwork.node[27].nic.mac1609_4 retriesExceeded:count 0
attr recordingmode count
attr source org_car2x_veins_modules_mac_sigRetriesExceeded
scalar V2VNetwork.node[27].nic.mac1609_4 sentAcks:count 0
attr recordingmode count
attr source org_car2x_veins_modules_mac_sigSentAck
scalar V2VNetwork.node[27].nic.mac1609_4 sentPackets:count 46
attr recordingmode count
attr source org_car2x_veins_modules_mac_sigSentPacket
scalar V2VNetwork.node[27].nic.mac1609_4 collisions:count 0
attr recordingmode count
attr source org_car2x_veins_modules_mac_sigCollision
scalar V2VNetwork.node[27].nic.mac1609_4 channelBusy:timeavg 0.058982191357977
attr recordingmode timeavg
attr source org_car2x_veins_modules_mac_sigChannelBusy
par V2VNetwork.node[27].nic typename "\"org.car2x.veins.modules.nic.Nic80211p\""
par V2VNetwork.node[27].nic connectionManagerName "\"connectionManager\""
par V2VNetwork.node[27].veinsmobility typename "\"org.car2x.veins.modules.mobility.traci.TraCIMobility\""
par V2VNetwork.node[27].veinsmobility notAffectedByHostState true
par V2VNetwork.node[27].veinsmobility x 0
par V2VNetwork.node[27].veinsmobility y 0
par V2VNetwork.node[27].veinsmobility z 0
par V2VNetwork.node[27].veinsmobility xOrientation 1
par V2VNetwork.node[27].veinsmobility yOrientation 0
par V2VNetwork.node[27].veinsmobility zOrientation 0
par V2VNetwork.node[27].veinsmobility hostPositionOffset 0m
attr unit m
par V2VNetwork.node[27].veinsmobility setHostSpeed false
par V2VNetwork.node[27].veinsmobility accidentCount 0
par V2VNetwork.node[27].veinsmobility accidentStart 46.1182s
attr unit s
par V2VNetwork.node[27].veinsmobility accidentDuration "uniform(30s, 60s)"
attr unit s
par V2VNetwork.node[27].veinsmobility accidentInterval "uniform(30s, 60s)"
attr unit s
scalar V2VNetwork.node[27].veinsmobility startTime 3.1
scalar V2VNetwork.node[27].veinsmobility totalTime 45.9
scalar V2VNetwork.node[27].veinsmobility stopTime 49.1
scalar V2VNetwork.node[27].veinsmobility minSpeed 0
scalar V2VNetwork.node[27].veinsmobility maxSpeed 15.433118155457
scalar V2VNetwork.node[27].veinsmobility totalDistance 425.80213790537
scalar V2VNetwork.node[27].veinsmobility totalCO2Emission 181.76624880919
par V2VNetwork.node[27] typename "\"org.car2x.veins.nodes.Car\""
par V2VNetwork.node[27] applType "\"MyVeinsApp\""
par V2VNetwork.node[27] nicType "\"Nic80211p\""
par V2VNetwork.node[27] veinsmobilityType "\"org.car2x.veins.modules.mobility.traci.TraCIMobility\""
scalar V2VNetwork.rsu[0].appl messagesRelayedToInternet 49
scalar V2VNetwork.rsu[2].appl messagesRelayedToInternet 48
par V2VNetwork.obstacles typename "\"org.car2x.veins.modules.obstacle.ObstacleControl\""
par V2VNetwork.obstacles obstacles "<obstacles/> at content:1"
par V2VNetwork.obstacles gridCellSize 250
par V2VNetwork.annotations typename "\"org.car2x.veins.modules.world.annotations.AnnotationManager\""
par V2VNetwork.annotations draw false
par V2VNetwork.annotations annotations "<annotations/> at content:1"
par V2VNetwork.connectionManager typename "\"org.car2x.veins.base.connectionManager.ConnectionManager\""
par V2VNetwork.connectionManager sendDirect true
par V2VNetwork.connectionManager maxInterfDist 2600m
attr unit m
par V2VNetwork.connectionManager drawMaxIntfDist false
par V2VNetwork.world typename "\"org.car2x.veins.base.modules.BaseWorldUtility\""
par V2VNetwork.world playgroundSizeX 6000m
attr unit m
par V2VNetwork.world playgroundSizeY 6000m
attr unit m
par V2VNetwork.world playgroundSizeZ 50m
attr unit m
par V2VNetwork.world useTorus false
par V2VNetwork.world use2D false
par V2VNetwork.manager typename "\"org.car2x.veins.modules.mobility.traci.TraCIScenarioManagerLaunchd\""
par V2VNetwork.manager connectAt 0s
attr unit s
par V2VNetwork.manager firstStepAt -1s
attr unit s
par V2VNetwork.manager updateInterval 0.1s
attr unit s
par V2VNetwork.manager moduleType "\"org.car2x.veins.nodes.Car\""
par V2VNetwork.manager moduleName "\"node\""
par V2VNetwork.manager moduleDisplayString "\"*='i=veins/node/car;is=vs'\""
par V2VNetwork.manager trafficLightModuleType "\"\""
par V2VNetwork.manager trafficLightModuleName "\"tls\""
par V2VNetwork.manager trafficLightFilter "\"\""
par V2VNetwork.manager trafficLightModuleDisplayString "\"i=veins/node/trafficlight;is=vs\""
par V2VNetwork.manager host "\"localhost\""
par V2VNetwork.manager port 9999
par V2VNetwork.manager seed -1
par V2VNetwork.manager autoShutdown true
par V2VNetwork.manager margin 25
par V2VNetwork.manager roiRoads "\"\""
par V2VNetwork.manager roiRects "\"\""
par V2VNetwork.manager penetrationRate 1
par V2VNetwork.manager ignoreGuiCommands false
par V2VNetwork.manager order -1
par V2VNetwork.manager ignoreUnknownSubscriptionResults false
par V2VNetwork.manager launchConfig "<launch>...</launch> at /home/lokesh/Downloads/omnetpp-6.2.0/minorproject/v2v/simulations/v2v//sumo.launchd.xml:1"
scalar V2VNetwork.manager roiArea 0
par V2VNetwork.roadsCanvasVisualizer typename "\"org.car2x.veins.visualizer.roads.RoadsCanvasVisualizer\""
par V2VNetwork.roadsCanvasVisualizer enabled true
par V2VNetwork.roadsCanvasVisualizer lineZIndex -1
par V2VNetwork.roadsCanvasVisualizer lineColor "\"firebrick4\""
par V2VNetwork.roadsCanvasVisualizer lineWidth 1
par V2VNetwork.roadsCanvasVisualizer lineWidthZoom false
par V2VNetwork.node[0].appl typename "\"org.car2x.veins.modules.application.traci.MyVeinsApp\""
par V2VNetwork.node[0].appl headerLength 88bit
attr unit bit
par V2VNetwork.node[0].appl sendBeacons true
par V2VNetwork.node[0].appl beaconLengthBits 256bit
attr unit bit
par V2VNetwork.node[0].appl beaconUserPriority 7
par V2VNetwork.node[0].appl beaconInterval 0.5s
attr unit s
par V2VNetwork.node[0].appl dataLengthBits 1024bit
attr unit bit
par V2VNetwork.node[0].appl dataOnSch false
par V2VNetwork.node[0].appl dataUserPriority 7
par V2VNetwork.node[0].appl avoidBeaconSynchronization true
par V2VNetwork.node[0].appl sendWSA false
par V2VNetwork.node[0].appl wsaLengthBits 250bit
attr unit bit
par V2VNetwork.node[0].appl wsaInterval 1s
attr unit s
par V2VNetwork.node[0].appl appName "\"V2V Security App\""
par V2VNetwork.node[0].appl malicious false
par V2VNetwork.node[0].appl attackType "\"none\""
par V2VNetwork.node[0].appl attackInterval 2s
attr unit s
par V2VNetwork.node[0].appl detectionEnabled false
par V2VNetwork.node[0].appl floodThreshold 3
par V2VNetwork.node[0].appl totalAttackers 14
par V2VNetwork.node[0].appl totalDefenders 15
scalar V2VNetwork.node[0].appl generatedWSMs 50
scalar V2VNetwork.node[0].appl receivedWSMs 0
scalar V2VNetwork.node[0].appl generatedBSMs 0
scalar V2VNetwork.node[0].appl receivedBSMs 0
scalar V2VNetwork.node[0].appl generatedWSAs 0
scalar V2VNetwork.node[0].appl receivedWSAs 0
par V2VNetwork.node[0].nic.phy80211p typename "\"org.car2x.veins.modules.phy.PhyLayer80211p\""
par V2VNetwork.node[0].nic.phy80211p recordStats false
par V2VNetwork.node[0].nic.phy80211p usePropagationDelay true
par V2VNetwork.node[0].nic.phy80211p noiseFloor -98dBm
attr unit dBm
par V2VNetwork.node[0].nic.phy80211p useNoiseFloor true
par V2VNetwork.node[0].nic.phy80211p antenna "<root>...</root> at /home/lokesh/Downloads/omnetpp-6.2.0/minorproject/v2v/simulations/v2v//config.xml:34"
par V2VNetwork.node[0].nic.phy80211p antennaOffsetX 0m
attr unit m
par V2VNetwork.node[0].nic.phy80211p antennaOffsetY 0m
attr unit m
par V2VNetwork.node[0].nic.phy80211p antennaOffsetZ 1.5m
attr unit m
par V2VNetwork.node[0].nic.phy80211p antennaOffsetYaw 0rad
attr unit rad
par V2VNetwork.node[0].nic.phy80211p analogueModels "<root>...</root> at /home/lokesh/Downloads/omnetpp-6.2.0/minorproject/v2v/simulations/v2v//config.xml:34"
par V2VNetwork.node[0].nic.phy80211p decider "<root>...</root> at /home/lokesh/Downloads/omnetpp-6.2.0/minorproject/v2v/simulations/v2v//config.xml:34"
par V2VNetwork.node[0].nic.phy80211p minPowerLevel -110dBm
attr unit dBm
par V2VNetwork.node[0].nic.phy80211p timeRXToTX 0s
attr unit s
par V2VNetwork.node[0].nic.phy80211p timeRXToSleep 0s
attr unit s
par V2VNetwork.node[0].nic.phy80211p timeTXToRX 0s
attr unit s
par V2VNetwork.node[0].nic.phy80211p timeTXToSleep 0s
attr unit s
par V2VNetwork.node[0].nic.phy80211p timeSleepToRX 0s
attr unit s
par V2VNetwork.node[0].nic.phy80211p timeSleepToTX 0s
attr unit s
par V2VNetwork.node[0].nic.phy80211p initialRadioState 0
par V2VNetwork.node[0].nic.phy80211p radioMinAtt 1
par V2VNetwork.node[0].nic.phy80211p radioMaxAtt 0
par V2VNetwork.node[0].nic.phy80211p nbRadioChannels 1
par V2VNetwork.node[0].nic.phy80211p initialRadioChannel 0
par V2VNetwork.node[0].nic.phy80211p ccaThreshold -65dBm
attr unit dBm
par V2VNetwork.node[0].nic.phy80211p collectCollisionStatistics false
par V2VNetwork.node[0].nic.phy80211p allowTxDuringRx false
scalar V2VNetwork.node[0].nic.phy80211p busyTime 0.29164360721442
par V2VNetwork.node[0].nic.mac1609_4 typename "\"org.car2x.veins.modules.mac.ieee80211p.Mac1609_4\""
par V2VNetwork.node[0].nic.mac1609_4 notAffectedByHostState false
par V2VNetwork.node[0].nic.mac1609_4 headerLength 0bit
attr unit bit
par V2VNetwork.node[0].nic.mac1609_4 address "\"auto\""
par V2VNetwork.node[0].nic.mac1609_4 useServiceChannel true
par V2VNetwork.node[0].nic.mac1609_4 serviceChannel 1
par V2VNetwork.node[0].nic.mac1609_4 bitrate 6000000bps
attr unit bps
par V2VNetwork.node[0].nic.mac1609_4 syncOffset 0.0003s
attr unit s
par V2VNetwork.node[0].nic.mac1609_4 txPower 20mW
attr unit mW
par V2VNetwork.node[0].nic.mac1609_4 queueSize 0
par V2VNetwork.node[0].nic.mac1609_4 dot11RTSThreshold 12000bit
attr unit bit
par V2VNetwork.node[0].nic.mac1609_4 dot11ShortRetryLimit 7
par V2VNetwork.node[0].nic.mac1609_4 dot11LongRetryLimit 4
par V2VNetwork.node[0].nic.mac1609_4 ackLength 112bit
attr unit bit
par V2VNetwork.node[0].nic.mac1609_4 useAcks false
par V2VNetwork.node[0].nic.mac1609_4 frameErrorRate 0
par V2VNetwork.node[0].nic.mac1609_4 ackErrorRate 0
scalar V2VNetwork.node[0].nic.mac1609_4 ReceivedUnicastPackets 0
scalar V2VNetwork.node[0].nic.mac1609_4 ReceivedBroadcasts 3821
scalar V2VNetwork.node[0].nic.mac1609_4 SentPackets 50
[...]
scalar V2VNetwork.node[28].veinsmobility totalCO2Emission 171.11221094267
par V2VNetwork.node[28] typename "\"org.car2x.veins.nodes.Car\""
par V2VNetwork.node[28] applType "\"MyVeinsApp\""
par V2VNetwork.node[28] nicType "\"Nic80211p\""
par V2VNetwork.node[28] veinsmobilityType "\"org.car2x.veins.modules.mobility.traci.TraCIMobility\""
par V2VNetwork.rsu[0].appl typename "\"org.car2x.veins.modules.application.traci.RSUApp\""
par V2VNetwork.rsu[0].appl headerLength 88bit
attr unit bit
par V2VNetwork.rsu[0].appl sendBeacons true
par V2VNetwork.rsu[0].appl beaconLengthBits 256bit
attr unit bit
par V2VNetwork.rsu[0].appl beaconUserPriority 7
par V2VNetwork.rsu[0].appl beaconInterval 1s
attr unit s
par V2VNetwork.rsu[0].appl dataLengthBits 1024bit
attr unit bit
par V2VNetwork.rsu[0].appl dataOnSch false
par V2VNetwork.rsu[0].appl dataUserPriority 7
par V2VNetwork.rsu[0].appl avoidBeaconSynchronization true
par V2VNetwork.rsu[0].appl sendWSA false
par V2VNetwork.rsu[0].appl wsaLengthBits 250bit
attr unit bit
par V2VNetwork.rsu[0].appl wsaInterval 1s
attr unit s
par V2VNetwork.rsu[0].appl internetAddress "\"cloud-server.com\""
par V2VNetwork.rsu[0].appl relayToInternet true
scalar V2VNetwork.rsu[0].appl generatedWSMs 0
scalar V2VNetwork.rsu[0].appl receivedWSMs 0
scalar V2VNetwork.rsu[0].appl generatedBSMs 50
scalar V2VNetwork.rsu[0].appl receivedBSMs 49
scalar V2VNetwork.rsu[0].appl generatedWSAs 0
scalar V2VNetwork.rsu[0].appl receivedWSAs 0
par V2VNetwork.rsu[0].nic.phy80211p typename "\"org.car2x.veins.modules.phy.PhyLayer80211p\""
par V2VNetwork.rsu[0].nic.phy80211p recordStats false
par V2VNetwork.rsu[0].nic.phy80211p usePropagationDelay true
par V2VNetwork.rsu[0].nic.phy80211p noiseFloor -98dBm
attr unit dBm
par V2VNetwork.rsu[0].nic.phy80211p useNoiseFloor true
par V2VNetwork.rsu[0].nic.phy80211p antenna "<root>...</root> at /home/lokesh/Downloads/omnetpp-6.2.0/minorproject/v2v/simulations/v2v//config.xml:34"
par V2VNetwork.rsu[0].nic.phy80211p antennaOffsetX 0m
attr unit m
par V2VNetwork.rsu[0].nic.phy80211p antennaOffsetY 0m
attr unit m
par V2VNetwork.rsu[0].nic.phy80211p antennaOffsetZ 8m
attr unit m
par V2VNetwork.rsu[0].nic.phy80211p antennaOffsetYaw 0rad
attr unit rad
par V2VNetwork.rsu[0].nic.phy80211p analogueModels "<root>...</root> at /home/lokesh/Downloads/omnetpp-6.2.0/minorproject/v2v/simulations/v2v//config.xml:34"
par V2VNetwork.rsu[0].nic.phy80211p decider "<root>...</root> at /home/lokesh/Downloads/omnetpp-6.2.0/minorproject/v2v/simulations/v2v//config.xml:34"
par V2VNetwork.rsu[0].nic.phy80211p minPowerLevel -110dBm
attr unit dBm
par V2VNetwork.rsu[0].nic.phy80211p timeRXToTX 0s
attr unit s
par V2VNetwork.rsu[0].nic.phy80211p timeRXToSleep 0s
attr unit s
par V2VNetwork.rsu[0].nic.phy80211p timeTXToRX 0s
attr unit s
par V2VNetwork.rsu[0].nic.phy80211p timeTXToSleep 0s
attr unit s
par V2VNetwork.rsu[0].nic.phy80211p timeSleepToRX 0s
attr unit s
par V2VNetwork.rsu[0].nic.phy80211p timeSleepToTX 0s
attr unit s
par V2VNetwork.rsu[0].nic.phy80211p initialRadioState 0
par V2VNetwork.rsu[0].nic.phy80211p radioMinAtt 1
par V2VNetwork.rsu[0].nic.phy80211p radioMaxAtt 0
par V2VNetwork.rsu[0].nic.phy80211p nbRadioChannels 1
par V2VNetwork.rsu[0].nic.phy80211p initialRadioChannel 0
par V2VNetwork.rsu[0].nic.phy80211p ccaThreshold -65dBm
attr unit dBm
par V2VNetwork.rsu[0].nic.phy80211p collectCollisionStatistics false
par V2VNetwork.rsu[0].nic.phy80211p allowTxDuringRx false
scalar V2VNetwork.rsu[0].nic.phy80211p busyTime 0.000208
par V2VNetwork.rsu[0].nic.mac1609_4 typename "\"org.car2x.veins.modules.mac.ieee80211p.Mac1609_4\""
par V2VNetwork.rsu[0].nic.mac1609_4 notAffectedByHostState false
par V2VNetwork.rsu[0].nic.mac1609_4 headerLength 0bit
attr unit bit
par V2VNetwork.rsu[0].nic.mac1609_4 address "\"auto\""
par V2VNetwork.rsu[0].nic.mac1609_4 useServiceChannel true
par V2VNetwork.rsu[0].nic.mac1609_4 serviceChannel 1
par V2VNetwork.rsu[0].nic.mac1609_4 bitrate 6000000bps
attr unit bps
par V2VNetwork.rsu[0].nic.mac1609_4 syncOffset 0.0003s
attr unit s
par V2VNetwork.rsu[0].nic.mac1609_4 txPower 20mW
attr unit mW
par V2VNetwork.rsu[0].nic.mac1609_4 queueSize 0
par V2VNetwork.rsu[0].nic.mac1609_4 dot11RTSThreshold 12000bit
attr unit bit
par V2VNetwork.rsu[0].nic.mac1609_4 dot11ShortRetryLimit 7
par V2VNetwork.rsu[0].nic.mac1609_4 dot11LongRetryLimit 4
par V2VNetwork.rsu[0].nic.mac1609_4 ackLength 112bit
attr unit bit
par V2VNetwork.rsu[0].nic.mac1609_4 useAcks false
par V2VNetwork.rsu[0].nic.mac1609_4 frameErrorRate 0
par V2VNetwork.rsu[0].nic.mac1609_4 ackErrorRate 0
scalar V2VNetwork.rsu[0].nic.mac1609_4 ReceivedUnicastPackets 0
scalar V2VNetwork.rsu[0].nic.mac1609_4 ReceivedBroadcasts 49
scalar V2VNetwork.rsu[0].nic.mac1609_4 SentPackets 50
scalar V2VNetwork.rsu[0].nic.mac1609_4 SentAcknowledgements 0
scalar V2VNetwork.rsu[0].nic.mac1609_4 RetriesExceeded 0
scalar V2VNetwork.rsu[0].nic.mac1609_4 SNIRLostPackets 51
scalar V2VNetwork.rsu[0].nic.mac1609_4 RXTXLostPackets 0
scalar V2VNetwork.rsu[0].nic.mac1609_4 TotalLostPackets 51
scalar V2VNetwork.rsu[0].nic.mac1609_4 DroppedPacketsInMac 0
scalar V2VNetwork.rsu[0].nic.mac1609_4 TooLittleTime 0
scalar V2VNetwork.rsu[0].nic.mac1609_4 TimesIntoBackoff 50
scalar V2VNetwork.rsu[0].nic.mac1609_4 SlotsBackoff 74
scalar V2VNetwork.rsu[0].nic.mac1609_4 NumInternalContention 0
scalar V2VNetwork.rsu[0].nic.mac1609_4 totalBusyTime 0.01565
scalar V2VNetwork.rsu[0].nic.mac1609_4 retriesExceeded:count 0
attr recordingmode count
attr source org_car2x_veins_modules_mac_sigRetriesExceeded
scalar V2VNetwork.rsu[0].nic.mac1609_4 sentAcks:count 0
attr recordingmode count
attr source org_car2x_veins_modules_mac_sigSentAck
scalar V2VNetwork.rsu[0].nic.mac1609_4 sentPackets:count 50
attr recordingmode count
attr source org_car2x_veins_modules_mac_sigSentPacket
scalar V2VNetwork.rsu[0].nic.mac1609_4 collisions:count 0
attr recordingmode count
attr source org_car2x_veins_modules_mac_sigCollision
scalar V2VNetwork.rsu[0].nic.mac1609_4 channelBusy:timeavg 0.000313
attr recordingmode timeavg
attr source org_car2x_veins_modules_mac_sigChannelBusy
par V2VNetwork.rsu[0].nic typename "\"org.car2x.veins.modules.nic.Nic80211p\""
par V2VNetwork.rsu[0].nic connectionManagerName "\"connectionManager\""
par V2VNetwork.rsu[0].mobility typename "\"org.car2x.veins.base.modules.BaseMobility\""
par V2VNetwork.rsu[0].mobility notAffectedByHostState true
par V2VNetwork.rsu[0].mobility x -100
par V2VNetwork.rsu[0].mobility y -100
par V2VNetwork.rsu[0].mobility z 0
par V2VNetwork.rsu[0].mobility xOrientation 1
par V2VNetwork.rsu[0].mobility yOrientation 0
par V2VNetwork.rsu[0].mobility zOrientation 0
par V2VNetwork.rsu[0] typename "\"org.car2x.veins.nodes.RSU\""
par V2VNetwork.rsu[0] applType "\"RSUApp\""
par V2VNetwork.rsu[0] nicType "\"Nic80211p\""
par V2VNetwork.rsu[1].appl typename "\"org.car2x.veins.modules.application.traci.RSUApp\""
par V2VNetwork.rsu[1].appl headerLength 88bit
attr unit bit
par V2VNetwork.rsu[1].appl sendBeacons true
par V2VNetwork.rsu[1].appl beaconLengthBits 256bit
attr unit bit
par V2VNetwork.rsu[1].appl beaconUserPriority 7
par V2VNetwork.rsu[1].appl beaconInterval 1s
attr unit s
par V2VNetwork.rsu[1].appl dataLengthBits 1024bit
attr unit bit
par V2VNetwork.rsu[1].appl dataOnSch false
par V2VNetwork.rsu[1].appl dataUserPriority 7
par V2VNetwork.rsu[1].appl avoidBeaconSynchronization true
par V2VNetwork.rsu[1].appl sendWSA false
par V2VNetwork.rsu[1].appl wsaLengthBits 250bit
attr unit bit
par V2VNetwork.rsu[1].appl wsaInterval 1s
attr unit s
par V2VNetwork.rsu[1].appl internetAddress "\"cloud-server.com\""
par V2VNetwork.rsu[1].appl relayToInternet true
scalar V2VNetwork.rsu[1].appl generatedWSMs 0
scalar V2VNetwork.rsu[1].appl receivedWSMs 0
scalar V2VNetwork.rsu[1].appl generatedBSMs 50
scalar V2VNetwork.rsu[1].appl receivedBSMs 0
scalar V2VNetwork.rsu[1].appl generatedWSAs 0
scalar V2VNetwork.rsu[1].appl receivedWSAs 0
par V2VNetwork.rsu[1].nic.phy80211p typename "\"org.car2x.veins.modules.phy.PhyLayer80211p\""
par V2VNetwork.rsu[1].nic.phy80211p recordStats false
par V2VNetwork.rsu[1].nic.phy80211p usePropagationDelay true
par V2VNetwork.rsu[1].nic.phy80211p noiseFloor -98dBm
attr unit dBm
par V2VNetwork.rsu[1].nic.phy80211p useNoiseFloor true
par V2VNetwork.rsu[1].nic.phy80211p antenna "<root>...</root> at /home/lokesh/Downloads/omnetpp-6.2.0/minorproject/v2v/simulations/v2v//config.xml:34"
par V2VNetwork.rsu[1].nic.phy80211p antennaOffsetX 0m
attr unit m
par V2VNetwork.rsu[1].nic.phy80211p antennaOffsetY 0m
attr unit m
par V2VNetwork.rsu[1].nic.phy80211p antennaOffsetZ 8m
attr unit m
par V2VNetwork.rsu[1].nic.phy80211p antennaOffsetYaw 0rad
attr unit rad
par V2VNetwork.rsu[1].nic.phy80211p analogueModels "<root>...</root> at /home/lokesh/Downloads/omnetpp-6.2.0/minorproject/v2v/simulations/v2v//config.xml:34"
par V2VNetwork.rsu[1].nic.phy80211p decider "<root>...</root> at /home/lokesh/Downloads/omnetpp-6.2.0/minorproject/v2v/simulations/v2v//config.xml:34"
par V2VNetwork.rsu[1].nic.phy80211p minPowerLevel -110dBm
attr unit dBm
par V2VNetwork.rsu[1].nic.phy80211p timeRXToTX 0s
attr unit s
par V2VNetwork.rsu[1].nic.phy80211p timeRXToSleep 0s
attr unit s
par V2VNetwork.rsu[1].nic.phy80211p timeTXToRX 0s
attr unit s
par V2VNetwork.rsu[1].nic.phy80211p timeTXToSleep 0s
attr unit s
par V2VNetwork.rsu[1].nic.phy80211p timeSleepToRX 0s
attr unit s
par V2VNetwork.rsu[1].nic.phy80211p timeSleepToTX 0s
attr unit s
par V2VNetwork.rsu[1].nic.phy80211p initialRadioState 0
par V2VNetwork.rsu[1].nic.phy80211p radioMinAtt 1
par V2VNetwork.rsu[1].nic.phy80211p radioMaxAtt 0
par V2VNetwork.rsu[1].nic.phy80211p nbRadioChannels 1
par V2VNetwork.rsu[1].nic.phy80211p initialRadioChannel 0
par V2VNetwork.rsu[1].nic.phy80211p ccaThreshold -65dBm
attr unit dBm
par V2VNetwork.rsu[1].nic.phy80211p collectCollisionStatistics false
par V2VNetwork.rsu[1].nic.phy80211p allowTxDuringRx false
scalar V2VNetwork.rsu[1].nic.phy80211p busyTime 0.21245391999999
par V2VNetwork.rsu[1].nic.mac1609_4 typename "\"org.car2x.veins.modules.mac.ieee80211p.Mac1609_4\""
par V2VNetwork.rsu[1].nic.mac1609_4 notAffectedByHostState false
par V2VNetwork.rsu[1].nic.mac1609_4 headerLength 0bit
attr unit bit
par V2VNetwork.rsu[1].nic.mac1609_4 address "\"auto\""
par V2VNetwork.rsu[1].nic.mac1609_4 useServiceChannel true
par V2VNetwork.rsu[1].nic.mac1609_4 serviceChannel 1
par V2VNetwork.rsu[1].nic.mac1609_4 bitrate 6000000bps
attr unit bps
par V2VNetwork.rsu[1].nic.mac1609_4 syncOffset 0.0003s
attr unit s
par V2VNetwork.rsu[1].nic.mac1609_4 txPower 20mW
attr unit mW
par V2VNetwork.rsu[1].nic.mac1609_4 queueSize 0
par V2VNetwork.rsu[1].nic.mac1609_4 dot11RTSThreshold 12000bit
attr unit bit
par V2VNetwork.rsu[1].nic.mac1609_4 dot11ShortRetryLimit 7
par V2VNetwork.rsu[1].nic.mac1609_4 dot11LongRetryLimit 4
par V2VNetwork.rsu[1].nic.mac1609_4 ackLength 112bit
attr unit bit
par V2VNetwork.rsu[1].nic.mac1609_4 useAcks false
par V2VNetwork.rsu[1].nic.mac1609_4 frameErrorRate 0
par V2VNetwork.rsu[1].nic.mac1609_4 ackErrorRate 0
scalar V2VNetwork.rsu[1].nic.mac1609_4 ReceivedUnicastPackets 0
scalar V2VNetwork.rsu[1].nic.mac1609_4 ReceivedBroadcasts 0
scalar V2VNetwork.rsu[1].nic.mac1609_4 SentPackets 50
scalar V2VNetwork.rsu[1].nic.mac1609_4 SentAcknowledgements 0
scalar V2VNetwork.rsu[1].nic.mac1609_4 RetriesExceeded 0
scalar V2VNetwork.rsu[1].nic.mac1609_4 SNIRLostPackets 49231
scalar V2VNetwork.rsu[1].nic.mac1609_4 RXTXLostPackets 0
scalar V2VNetwork.rsu[1].nic.mac1609_4 TotalLostPackets 49231
scalar V2VNetwork.rsu[1].nic.mac1609_4 DroppedPacketsInMac 0
scalar V2VNetwork.rsu[1].nic.mac1609_4 TooLittleTime 0
scalar V2VNetwork.rsu[1].nic.mac1609_4 TimesIntoBackoff 50
scalar V2VNetwork.rsu[1].nic.mac1609_4 SlotsBackoff 68
scalar V2VNetwork.rsu[1].nic.mac1609_4 NumInternalContention 0
scalar V2VNetwork.rsu[1].nic.mac1609_4 totalBusyTime 2.788874
scalar V2VNetwork.rsu[1].nic.mac1609_4 retriesExceeded:count 0
attr recordingmode count
attr source org_car2x_veins_modules_mac_sigRetriesExceeded
scalar V2VNetwork.rsu[1].nic.mac1609_4 sentAcks:count 0
attr recordingmode count
attr source org_car2x_veins_modules_mac_sigSentAck
scalar V2VNetwork.rsu[1].nic.mac1609_4 sentPackets:count 50
attr recordingmode count
attr source org_car2x_veins_modules_mac_sigSentPacket
scalar V2VNetwork.rsu[1].nic.mac1609_4 collisions:count 0
attr recordingmode count
attr source org_car2x_veins_modules_mac_sigCollision
scalar V2VNetwork.rsu[1].nic.mac1609_4 channelBusy:timeavg 0.055777479999999
attr recordingmode timeavg
attr source org_car2x_veins_modules_mac_sigChannelBusy
par V2VNetwork.rsu[1].nic typename "\"org.car2x.veins.modules.nic.Nic80211p\""
par V2VNetwork.rsu[1].nic connectionManagerName "\"connectionManager\""
par V2VNetwork.rsu[1].mobility typename "\"org.car2x.veins.base.modules.BaseMobility\""
par V2VNetwork.rsu[1].mobility notAffectedByHostState true
par V2VNetwork.rsu[1].mobility x -500
par V2VNetwork.rsu[1].mobility y -300
par V2VNetwork.rsu[1].mobility z 0
par V2VNetwork.rsu[1].mobility xOrientation 1
par V2VNetwork.rsu[1].mobility yOrientation 0
par V2VNetwork.rsu[1].mobility zOrientation 0
par V2VNetwork.rsu[1] typename "\"org.car2x.veins.nodes.RSU\""
par V2VNetwork.rsu[1] applType "\"RSUApp\""
par V2VNetwork.rsu[1] nicType "\"Nic80211p\""
par V2VNetwork.rsu[2].appl typename "\"org.car2x.veins.modules.application.traci.RSUApp\""
par V2VNetwork.rsu[2].appl headerLength 88bit
attr unit bit
par V2VNetwork.rsu[2].appl sendBeacons true
par V2VNetwork.rsu[2].appl beaconLengthBits 256bit
attr unit bit
par V2VNetwork.rsu[2].appl beaconUserPriority 7
par V2VNetwork.rsu[2].appl beaconInterval 1s
attr unit s
par V2VNetwork.rsu[2].appl dataLengthBits 1024bit
attr unit bit
par V2VNetwork.rsu[2].appl dataOnSch false
par V2VNetwork.rsu[2].appl dataUserPriority 7
par V2VNetwork.rsu[2].appl avoidBeaconSynchronization true
par V2VNetwork.rsu[2].appl sendWSA false
par V2VNetwork.rsu[2].appl wsaLengthBits 250bit
attr unit bit
par V2VNetwork.rsu[2].appl wsaInterval 1s
attr unit s
par V2VNetwork.rsu[2].appl internetAddress "\"cloud-server.com\""
par V2VNetwork.rsu[2].appl relayToInternet true
scalar V2VNetwork.rsu[2].appl generatedWSMs 0
scalar V2VNetwork.rsu[2].appl receivedWSMs 0
scalar V2VNetwork.rsu[2].appl generatedBSMs 50
scalar V2VNetwork.rsu[2].appl receivedBSMs 48
scalar V2VNetwork.rsu[2].appl generatedWSAs 0
scalar V2VNetwork.rsu[2].appl receivedWSAs 0
par V2VNetwork.rsu[2].nic.phy80211p typename "\"org.car2x.veins.modules.phy.PhyLayer80211p\""
par V2VNetwork.rsu[2].nic.phy80211p recordStats false
par V2VNetwork.rsu[2].nic.phy80211p usePropagationDelay true
par V2VNetwork.rsu[2].nic.phy80211p noiseFloor -98dBm
attr unit dBm
par V2VNetwork.rsu[2].nic.phy80211p useNoiseFloor true
par V2VNetwork.rsu[2].nic.phy80211p antenna "<root>...</root> at /home/lokesh/Downloads/omnetpp-6.2.0/minorproject/v2v/simulations/v2v//config.xml:34"
par V2VNetwork.rsu[2].nic.phy80211p antennaOffsetX 0m
attr unit m
par V2VNetwork.rsu[2].nic.phy80211p antennaOffsetY 0m
attr unit m
par V2VNetwork.rsu[2].nic.phy80211p antennaOffsetZ 8m
attr unit m
par V2VNetwork.rsu[2].nic.phy80211p antennaOffsetYaw 0rad
attr unit rad
par V2VNetwork.rsu[2].nic.phy80211p analogueModels "<root>...</root> at /home/lokesh/Downloads/omnetpp-6.2.0/minorproject/v2v/simulations/v2v//config.xml:34"
par V2VNetwork.rsu[2].nic.phy80211p decider "<root>...</root> at /home/lokesh/Downloads/omnetpp-6.2.0/minorproject/v2v/simulations/v2v//config.xml:34"
par V2VNetwork.rsu[2].nic.phy80211p minPowerLevel -110dBm
attr unit dBm
par V2VNetwork.rsu[2].nic.phy80211p timeRXToTX 0s
attr unit s
par V2VNetwork.rsu[2].nic.phy80211p timeRXToSleep 0s
attr unit s
par V2VNetwork.rsu[2].nic.phy80211p timeTXToRX 0s
attr unit s
par V2VNetwork.rsu[2].nic.phy80211p timeTXToSleep 0s
attr unit s
par V2VNetwork.rsu[2].nic.phy80211p timeSleepToRX 0s
attr unit s
par V2VNetwork.rsu[2].nic.phy80211p timeSleepToTX 0s
attr unit s
par V2VNetwork.rsu[2].nic.phy80211p initialRadioState 0
par V2VNetwork.rsu[2].nic.phy80211p radioMinAtt 1
par V2VNetwork.rsu[2].nic.phy80211p radioMaxAtt 0
par V2VNetwork.rsu[2].nic.phy80211p nbRadioChannels 1
par V2VNetwork.rsu[2].nic.phy80211p initialRadioChannel 0
par V2VNetwork.rsu[2].nic.phy80211p ccaThreshold -65dBm
attr unit dBm
par V2VNetwork.rsu[2].nic.phy80211p collectCollisionStatistics false
par V2VNetwork.rsu[2].nic.phy80211p allowTxDuringRx false
scalar V2VNetwork.rsu[2].nic.phy80211p busyTime 0.000208
par V2VNetwork.rsu[2].nic.mac1609_4 typename "\"org.car2x.veins.modules.mac.ieee80211p.Mac1609_4\""
par V2VNetwork.rsu[2].nic.mac1609_4 notAffectedByHostState false
par V2VNetwork.rsu[2].nic.mac1609_4 headerLength 0bit
attr unit bit
par V2VNetwork.rsu[2].nic.mac1609_4 address "\"auto\""
par V2VNetwork.rsu[2].nic.mac1609_4 useServiceChannel true
par V2VNetwork.rsu[2].nic.mac1609_4 serviceChannel 1
par V2VNetwork.rsu[2].nic.mac1609_4 bitrate 6000000bps
attr unit bps
par V2VNetwork.rsu[2].nic.mac1609_4 syncOffset 0.0003s
attr unit s
par V2VNetwork.rsu[2].nic.mac1609_4 txPower 20mW
attr unit mW
par V2VNetwork.rsu[2].nic.mac1609_4 queueSize 0
par V2VNetwork.rsu[2].nic.mac1609_4 dot11RTSThreshold 12000bit
attr unit bit
par V2VNetwork.rsu[2].nic.mac1609_4 dot11ShortRetryLimit 7
par V2VNetwork.rsu[2].nic.mac1609_4 dot11LongRetryLimit 4
par V2VNetwork.rsu[2].nic.mac1609_4 ackLength 112bit
attr unit bit
par V2VNetwork.rsu[2].nic.mac1609_4 useAcks false
par V2VNetwork.rsu[2].nic.mac1609_4 frameErrorRate 0
par V2VNetwork.rsu[2].nic.mac1609_4 ackErrorRate 0
scalar V2VNetwork.rsu[2].nic.mac1609_4 ReceivedUnicastPackets 0
scalar V2VNetwork.rsu[2].nic.mac1609_4 ReceivedBroadcasts 48
scalar V2VNetwork.rsu[2].nic.mac1609_4 SentPackets 50
scalar V2VNetwork.rsu[2].nic.mac1609_4 SentAcknowledgements 0
scalar V2VNetwork.rsu[2].nic.mac1609_4 RetriesExceeded 0
scalar V2VNetwork.rsu[2].nic.mac1609_4 SNIRLostPackets 52
scalar V2VNetwork.rsu[2].nic.mac1609_4 RXTXLostPackets 0
scalar V2VNetwork.rsu[2].nic.mac1609_4 TotalLostPackets 52
scalar V2VNetwork.rsu[2].nic.mac1609_4 DroppedPacketsInMac 0
scalar V2VNetwork.rsu[2].nic.mac1609_4 TooLittleTime 0
scalar V2VNetwork.rsu[2].nic.mac1609_4 TimesIntoBackoff 50
scalar V2VNetwork.rsu[2].nic.mac1609_4 SlotsBackoff 62
scalar V2VNetwork.rsu[2].nic.mac1609_4 NumInternalContention 0
scalar V2VNetwork.rsu[2].nic.mac1609_4 totalBusyTime 0.01565
scalar V2VNetwork.rsu[2].nic.mac1609_4 retriesExceeded:count 0
attr recordingmode count
attr source org_car2x_veins_modules_mac_sigRetriesExceeded
scalar V2VNetwork.rsu[2].nic.mac1609_4 sentAcks:count 0
attr recordingmode count
attr source org_car2x_veins_modules_mac_sigSentAck
scalar V2VNetwork.rsu[2].nic.mac1609_4 sentPackets:count 50
attr recordingmode count
attr source org_car2x_veins_modules_mac_sigSentPacket
scalar V2VNetwork.rsu[2].nic.mac1609_4 collisions:count 0
attr recordingmode count
attr source org_car2x_veins_modules_mac_sigCollision
scalar V2VNetwork.rsu[2].nic.mac1609_4 channelBusy:timeavg 0.000313
attr recordingmode timeavg
attr source org_car2x_veins_modules_mac_sigChannelBusy
par V2VNetwork.rsu[2].nic typename "\"org.car2x.veins.modules.nic.Nic80211p\""
par V2VNetwork.rsu[2].nic connectionManagerName "\"connectionManager\""
par V2VNetwork.rsu[2].mobility typename "\"org.car2x.veins.base.modules.BaseMobility\""
par V2VNetwork.rsu[2].mobility notAffectedByHostState true
par V2VNetwork.rsu[2].mobility x -300
par V2VNetwork.rsu[2].mobility y -500
par V2VNetwork.rsu[2].mobility z 0
par V2VNetwork.rsu[2].mobility xOrientation 1
par V2VNetwork.rsu[2].mobility yOrientation 0
par V2VNetwork.rsu[2].mobility zOrientation 0
par V2VNetwork.rsu[2] typename "\"org.car2x.veins.nodes.RSU\""
par V2VNetwork.rsu[2] applType "\"RSUApp\""
par V2VNetwork.rsu[2] nicType "\"Nic80211p\""
par V2VNetwork typename "\"v2v.simulations.v2v.V2VNetwork\""
par V2VNetwork playgroundSizeX 6000m
attr unit m
par V2VNetwork playgroundSizeY 6000m
attr unit m
par V2VNetwork playgroundSizeZ 50m
attr unit m
par V2VNetwork numVehicles 29
par V2VNetwork numRSUs 3

